*Heading
 Tube
** Job name: CSM_Time0 Model name: Model-1
** Generated by: Abaqus/CAE 6.14-1
*Preprint, echo=NO, model=NO, history=NO, contact=NO
**
** PARTS
**
*Part, name=PART-1
*Node
      1, 0.00499999989, -0.0250000004
      2, 0.00499999989, 0.0250000004
      3, 0.00600000005, 0.0250000004
      4, 0.00600000005, -0.0250000004
      5, 0.00499999989, -0.0240000002
      6, 0.00499999989,       -0.023
      7, 0.00499999989, -0.0219999999
      8, 0.00499999989, -0.0209999997
      9, 0.00499999989, -0.0199999996
     10, 0.00499999989, -0.0189999994
     11, 0.00499999989, -0.0179999992
     12, 0.00499999989, -0.0170000009
     13, 0.00499999989, -0.0160000008
     14, 0.00499999989, -0.0149999997
     15, 0.00499999989, -0.0140000004
     16, 0.00499999989, -0.0130000003
     17, 0.00499999989, -0.0120000001
     18, 0.00499999989, -0.0109999999
     19, 0.00499999989, -0.00999999978
     20, 0.00499999989, -0.00899999961
** ... 841 like lines cut
*Element, type=CAX8RH
  1,   2,  53, 221, 215, 103, 417, 418, 220
  2,  53,  52, 225, 221, 102, 419, 420, 417
  3,  52,  51, 229, 225, 101, 421, 422, 419
  4,  51,  50, 233, 229, 100, 423, 424, 421
  5,  50,  49, 237, 233,  99, 425, 426, 423
  6,  49,  48, 241, 237,  98, 427, 428, 425
  7,  48,  47, 245, 241,  97, 429, 430, 427
  8,  47,  46, 249, 245,  96, 431, 432, 429
  9,  46,  45, 253, 249,  95, 433, 434, 431
 10,  45,  44, 257, 253,  94, 435, 436, 433
 11,  44,  43, 261, 257,  93, 437, 438, 435
 12,  43,  42, 265, 261,  92, 439, 440, 437
 13,  42,  41, 269, 265,  91, 441, 442, 439
 14,  41,  40, 273, 269,  90, 443, 444, 441
 15,  40,  39, 277, 273,  89, 445, 446, 443
 16,  39,  38, 281, 277,  88, 447, 448, 445
 17,  38,  37, 285, 281,  87, 449, 450, 447
 18,  37,  36, 289, 285,  86, 451, 452, 449
 19,  36,  35, 293, 289,  85, 453, 454, 451
 20,  35,  34, 297, 293,  84, 455, 456, 453
** ... 230 like lines cut
*Nset, nset=NALL, generate
   1,  861,    1
*Nset, nset=BEAMINSIDEMOVING
   1,   2,   5,   6,   7,   8,   9,  10,  11,  12,  13,  14,  15,  16,  17,  18
  19,  20,  21,  22,  23,  24,  25,  26,  27,  28,  29,  30,  31,  32,  33,  34
  35,  36,  37,  38,  39,  40,  41,  42,  43,  44,  45,  46,  47,  48,  49,  50
  51,  52,  53,  54,  55,  56,  57,  58,  59,  60,  61,  62,  63,  64,  65,  66
  67,  68,  69,  70,  71,  72,  73,  74,  75,  76,  77,  78,  79,  80,  81,  82
  83,  84,  85,  86,  87,  88,  89,  90,  91,  92,  93,  94,  95,  96,  97,  98
  99, 100, 101, 102, 103
*Nset, nset=BEAMINSIDEFIXED
   1,   2,   3,   4, 203, 204, 205, 206, 207, 208, 209, 210, 211, 212, 213, 214
 215, 216, 217, 218, 219, 220
*Nset, nset=BEAMINSIDEFREE
   3,   4, 104, 105, 106, 107, 108, 109, 110, 111, 112, 113, 114, 115, 116, 117
 118, 119, 120, 121, 122, 123, 124, 125, 126, 127, 128, 129, 130, 131, 132, 133
 134, 135, 136, 137, 138, 139, 140, 141, 142, 143, 144, 145, 146, 147, 148, 149
 150, 151, 152, 153, 154, 155, 156, 157, 158, 159, 160, 161, 162, 163, 164, 165
 166, 167, 168, 169, 170, 171, 172, 173, 174, 175, 176, 177, 178, 179, 180, 181
 182, 183, 184, 185, 186, 187, 188, 189, 190, 191, 192, 193, 194, 195, 196, 197
 198, 199, 200, 201, 202
*Elset, elset=EALL, generate
   1,  250,    1
*Elset, elset=BEAM, generate
   1,  250,    1
*Elset, elset=_PickedSet8, internal, generate
   1,  250,    1
** Section: TubeSection
*Solid Section, elset=_PickedSet8, material=Material
1.,
*End Part
**  
**
** ASSEMBLY
**
*Assembly, name=Assembly
**  
*Instance, name=PART-1-1, part=PART-1
*End Instance
**  
*Elset, elset=BEAM, instance=PART-1-1, generate
   1,  250,    1
*Nset, nset=BEAMINSIDEFIXED, instance=PART-1-1
   1,   2,   3,   4, 203, 204, 205, 206, 207, 208, 209, 210, 211, 212, 213, 214
 215, 216, 217, 218, 219, 220
*Nset, nset=BEAMINSIDEFREE, instance=PART-1-1
   3,   4, 104, 105, 106, 107, 108, 109, 110, 111, 112, 113, 114, 115, 116, 117
 118, 119, 120, 121, 122, 123, 124, 125, 126, 127, 128, 129, 130, 131, 132, 133
 134, 135, 136, 137, 138, 139, 140, 141, 142, 143, 144, 145, 146, 147, 148, 149
 150, 151, 152, 153, 154, 155, 156, 157, 158, 159, 160, 161, 162, 163, 164, 165
 166, 167, 168, 169, 170, 171, 172, 173, 174, 175, 176, 177, 178, 179, 180, 181
 182, 183, 184, 185, 186, 187, 188, 189, 190, 191, 192, 193, 194, 195, 196, 197
 198, 199, 200, 201, 202
*Nset, nset=BEAMINSIDEMOVING, instance=PART-1-1
   1,   2,   5,   6,   7,   8,   9,  10,  11,  12,  13,  14,  15,  16,  17,  18
  19,  20,  21,  22,  23,  24,  25,  26,  27,  28,  29,  30,  31,  32,  33,  34
  35,  36,  37,  38,  39,  40,  41,  42,  43,  44,  45,  46,  47,  48,  49,  50
  51,  52,  53,  54,  55,  56,  57,  58,  59,  60,  61,  62,  63,  64,  65,  66
  67,  68,  69,  70,  71,  72,  73,  74,  75,  76,  77,  78,  79,  80,  81,  82
  83,  84,  85,  86,  87,  88,  89,  90,  91,  92,  93,  94,  95,  96,  97,  98
  99, 100, 101, 102, 103
*Elset, elset=EALL, instance=PART-1-1, generate
   1,  250,    1
*Nset, nset=NALL, instance=PART-1-1, generate
   1,  861,    1
*Elset, elset=_MOVINGSURFACE0_S1, internal, instance=PART-1-1, generate
  1,  50,   1
*Surface, type=ELEMENT, name=MOVINGSURFACE0
_MOVINGSURFACE0_S1, S1
*End Assembly
** 
** MATERIALS
** 
*Material, name=Material
*Density
1200.,
*Elastic
300000., 0.3
** ----------------------------------------------------------------
** 
** STEP: Step-1
** 
*Step, name=Step-1, nlgeom=YES, inc=1
*Dynamic,application=QUASI-STATIC,direct,nohaf,initial=NO
0.0001,0.0001,
** 
** BOUNDARY CONDITIONS
** 
** Name: FixedEnds Type: Displacement/Rotation
*Boundary
BEAMINSIDEFIXED, 1, 1
BEAMINSIDEFIXED, 2, 2
** 
** LOADS
** 
** Name: DistributedPressure   Type: Pressure
*Dsload, op=NEW
MOVINGSURFACE0, PNU, 1.
** Name: DistributedShear   Type: Surface traction
*Dsload, op=NEW
MOVINGSURFACE0, TRVECNU, 1., 1., 0., 0.
** 
** OUTPUT REQUESTS
** 
*Restart, write, overlay, frequency=99999
** 
** FIELD OUTPUT: F-Output-1
** 
*Output, field, frequency=99999
*Node Output, nset=BEAMINSIDEMOVING
COORD, U
** 
** FIELD OUTPUT: F-Output-2
** 
*Output, field, variable=PRESELECT, frequency=99999
** 
** HISTORY OUTPUT: H-Output-1
** 
*Output, history, variable=PRESELECT, frequency=99999
*End Step
