/*---------------------------------------------------------------------------*\
| =========                 |                                                 |
| \\      /  F ield         | OpenFOAM: The Open Source CFD Toolbox           |
|  \\    /   O peration     | Version:  4.1                                   |
|   \\  /    A nd           | Web:      www.OpenFOAM.org                      |
|    \\/     M anipulation  |                                                 |
\*---------------------------------------------------------------------------*/
Build  : 4.1
Exec   : reconstructPar
Date   : Nov 21 2019
Time   : 16:29:11
Host   : "cfdclu55.ugent.be"
PID    : 78792
Case   : /cfdfile2/data/fm/laurent/git-repository/Kratos/applications/CoSimulationApplication/tests/solver_wrappers/openfoam/test_pipeCyclic
nProcs : 1
sigFpe : Enabling floating point exception trapping (FOAM_SIGFPE).
fileModificationChecking : Monitoring run-time modified files using timeStampMaster
allowSystemOperations : Allowing user-supplied system call operations

// * * * * * * * * * * * * * * * * * * * * * * * * * * * * * * * * * * * * * //
Create time



Reconstructing fields for mesh region0

Time = 100

Reconstructing FV fields

    Reconstructing volScalarFields

        p
        nut
        k
        epsilon

    Reconstructing volVectorFields

        U
Using dynamicCode for patch inlet on field U at line 348 in "/cfdfile2/data/fm/laurent/git-repository/Kratos/applications/CoSimulationApplication/tests/solver_wrappers/openfoam/test_pipeCyclic/processor0/100/U.boundaryField.inlet"
Using dynamicCode for patch inlet on field U at line 352 in "/cfdfile2/data/fm/laurent/git-repository/Kratos/applications/CoSimulationApplication/tests/solver_wrappers/openfoam/test_pipeCyclic/processor1/100/U.boundaryField.inlet"
Using dynamicCode for patch inlet on field U at line 348 in "/cfdfile2/data/fm/laurent/git-repository/Kratos/applications/CoSimulationApplication/tests/solver_wrappers/openfoam/test_pipeCyclic/processor2/100/U.boundaryField.inlet"
Using dynamicCode for patch inlet on field U at line 352 in "/cfdfile2/data/fm/laurent/git-repository/Kratos/applications/CoSimulationApplication/tests/solver_wrappers/openfoam/test_pipeCyclic/processor3/100/U.boundaryField.inlet"
Using dynamicCode for patch inlet on field U at line 350 in "/cfdfile2/data/fm/laurent/git-repository/Kratos/applications/CoSimulationApplication/tests/solver_wrappers/openfoam/test_pipeCyclic/processor4/100/U.boundaryField.inlet"

    Reconstructing surfaceScalarFields

        phi

Reconstructing point fields

No point fields

No lagrangian fields

Time = 200

Reconstructing FV fields

    Reconstructing volScalarFields

        p
        nut
        k
        epsilon

    Reconstructing volVectorFields

        U

    Reconstructing surfaceScalarFields

        phi

Reconstructing point fields

No point fields

No lagrangian fields

Time = 239

Reconstructing FV fields

    Reconstructing volScalarFields

        p
        nut
        k
        epsilon

    Reconstructing volVectorFields

        U

    Reconstructing surfaceScalarFields

        phi

Reconstructing point fields

No point fields

No lagrangian fields


End

