/*---------------------------------------------------------------------------*\
| =========                 |                                                 |
| \\      /  F ield         | OpenFOAM: The Open Source CFD Toolbox           |
|  \\    /   O peration     | Version:  4.1                                   |
|   \\  /    A nd           | Web:      www.OpenFOAM.org                      |
|    \\/     M anipulation  |                                                 |
\*---------------------------------------------------------------------------*/
Build  : 4.1
Exec   : simpleFoam -parallel
Date   : Nov 21 2019
Time   : 16:29:09
Host   : "cfdclu55.ugent.be"
PID    : 78765
Case   : /cfdfile2/data/fm/laurent/git-repository/Kratos/applications/CoSimulationApplication/tests/solver_wrappers/openfoam/test_pipeCyclic
nProcs : 5
Slaves : 
4
(
"cfdclu55.ugent.be.78766"
"cfdclu55.ugent.be.78767"
"cfdclu55.ugent.be.78768"
"cfdclu55.ugent.be.78769"
)

Pstream initialized with:
    floatTransfer      : 0
    nProcsSimpleSum    : 0
    commsType          : nonBlocking
    polling iterations : 0
sigFpe : Enabling floating point exception trapping (FOAM_SIGFPE).
fileModificationChecking : Monitoring run-time modified files using timeStampMaster
allowSystemOperations : Allowing user-supplied system call operations

// * * * * * * * * * * * * * * * * * * * * * * * * * * * * * * * * * * * * * //
Create time

Create mesh for time = 0


SIMPLE: convergence criteria
    field p	 tolerance 0.01
    field U	 tolerance 0.001
    field "(k|epsilon)"	 tolerance 0.001

Reading field p

Reading field U

Using dynamicCode for patch inlet on field U at line 26 in "/cfdfile2/data/fm/laurent/git-repository/Kratos/applications/CoSimulationApplication/tests/solver_wrappers/openfoam/test_pipeCyclic/processor0/0/U.boundaryField.inlet"
Reading/calculating face flux field phi

AMI: Creating addressing and weights between 400 source faces and 250 target faces
AMI: Patch source sum(weights) min/max/average = 1, 1, 1
AMI: Patch target sum(weights) min/max/average = 1, 1, 1
Selecting incompressible transport model Newtonian
Selecting turbulence model type RAS
Selecting RAS turbulence model realizableKE
realizableKECoeffs
{
    Cmu             0.09;
    A0              4;
    C2              1.9;
    sigmak          1;
    sigmaEps        1.2;
}

No MRF models present

No finite volume options present


Starting time loop

Time = 1

smoothSolver:  Solving for Ux, Initial residual = 1, Final residual = 0.0418308, No Iterations 3
smoothSolver:  Solving for Uy, Initial residual = 1, Final residual = 0.0470531, No Iterations 2
smoothSolver:  Solving for Uz, Initial residual = 1, Final residual = 0.0291321, No Iterations 2
GAMG:  Solving for p, Initial residual = 1, Final residual = 0.0210888, No Iterations 5
time step continuity errors : sum local = 8.03792e-05, global = -3.95348e-06, cumulative = -3.95348e-06
smoothSolver:  Solving for epsilon, Initial residual = 0.0893252, Final residual = 0.00734867, No Iterations 2
smoothSolver:  Solving for k, Initial residual = 1, Final residual = 0.0908651, No Iterations 2
ExecutionTime = 0.05 s  ClockTime = 0 s

Time = 2

smoothSolver:  Solving for Ux, Initial residual = 0.258041, Final residual = 0.0148084, No Iterations 2
smoothSolver:  Solving for Uy, Initial residual = 0.139792, Final residual = 0.0063197, No Iterations 2
smoothSolver:  Solving for Uz, Initial residual = 0.299813, Final residual = 0.0083957, No Iterations 2
GAMG:  Solving for p, Initial residual = 0.18052, Final residual = 0.0058414, No Iterations 4
time step continuity errors : sum local = 0.000197611, global = -2.63872e-05, cumulative = -3.03407e-05
smoothSolver:  Solving for epsilon, Initial residual = 0.0287226, Final residual = 0.00125223, No Iterations 2
smoothSolver:  Solving for k, Initial residual = 0.274974, Final residual = 0.0232355, No Iterations 2
ExecutionTime = 0.06 s  ClockTime = 0 s

Time = 3

smoothSolver:  Solving for Ux, Initial residual = 0.197709, Final residual = 0.0117371, No Iterations 3
smoothSolver:  Solving for Uy, Initial residual = 0.0699073, Final residual = 0.00254971, No Iterations 2
smoothSolver:  Solving for Uz, Initial residual = 0.174986, Final residual = 0.00407193, No Iterations 2
GAMG:  Solving for p, Initial residual = 0.206537, Final residual = 0.00574647, No Iterations 3
time step continuity errors : sum local = 0.000350368, global = -9.20813e-06, cumulative = -3.95489e-05
smoothSolver:  Solving for epsilon, Initial residual = 0.0565718, Final residual = 0.00231984, No Iterations 2
smoothSolver:  Solving for k, Initial residual = 0.112183, Final residual = 0.00478723, No Iterations 3
ExecutionTime = 0.07 s  ClockTime = 0 s

Time = 4

smoothSolver:  Solving for Ux, Initial residual = 0.310081, Final residual = 0.0183827, No Iterations 3
smoothSolver:  Solving for Uy, Initial residual = 0.0494653, Final residual = 0.00176774, No Iterations 2
smoothSolver:  Solving for Uz, Initial residual = 0.107352, Final residual = 0.00226677, No Iterations 2
GAMG:  Solving for p, Initial residual = 0.248553, Final residual = 0.0121123, No Iterations 2
time step continuity errors : sum local = 0.000957096, global = -1.60956e-05, cumulative = -5.56444e-05
smoothSolver:  Solving for epsilon, Initial residual = 0.0645386, Final residual = 0.00418019, No Iterations 2
smoothSolver:  Solving for k, Initial residual = 0.0713133, Final residual = 0.0036257, No Iterations 3
ExecutionTime = 0.08 s  ClockTime = 0 s

Time = 5

smoothSolver:  Solving for Ux, Initial residual = 0.172151, Final residual = 0.0106331, No Iterations 3
smoothSolver:  Solving for Uy, Initial residual = 0.0407501, Final residual = 0.00141987, No Iterations 2
smoothSolver:  Solving for Uz, Initial residual = 0.0709858, Final residual = 0.00148528, No Iterations 2
GAMG:  Solving for p, Initial residual = 0.279663, Final residual = 0.00636556, No Iterations 3
time step continuity errors : sum local = 0.000513409, global = -6.87686e-06, cumulative = -6.25213e-05
smoothSolver:  Solving for epsilon, Initial residual = 0.074378, Final residual = 0.00622438, No Iterations 2
smoothSolver:  Solving for k, Initial residual = 0.055878, Final residual = 0.00311444, No Iterations 3
ExecutionTime = 0.09 s  ClockTime = 0 s

Time = 6

smoothSolver:  Solving for Ux, Initial residual = 0.0970215, Final residual = 0.00481007, No Iterations 3
smoothSolver:  Solving for Uy, Initial residual = 0.033335, Final residual = 0.00118563, No Iterations 2
smoothSolver:  Solving for Uz, Initial residual = 0.052211, Final residual = 0.00103181, No Iterations 2
GAMG:  Solving for p, Initial residual = 0.288769, Final residual = 0.0109226, No Iterations 2
time step continuity errors : sum local = 0.000854663, global = 0.000118959, cumulative = 5.64379e-05
smoothSolver:  Solving for epsilon, Initial residual = 0.0899824, Final residual = 0.00840655, No Iterations 2
bounding epsilon, min: -0.00156745 max: 1.84082 average: 1.17824
smoothSolver:  Solving for k, Initial residual = 0.04768, Final residual = 0.00279008, No Iterations 3
ExecutionTime = 0.1 s  ClockTime = 0 s

Time = 7

smoothSolver:  Solving for Ux, Initial residual = 0.0883814, Final residual = 0.00397256, No Iterations 3
smoothSolver:  Solving for Uy, Initial residual = 0.0286929, Final residual = 0.00101993, No Iterations 2
smoothSolver:  Solving for Uz, Initial residual = 0.0423725, Final residual = 0.000800277, No Iterations 2
GAMG:  Solving for p, Initial residual = 0.252508, Final residual = 0.00695632, No Iterations 2
time step continuity errors : sum local = 0.000564977, global = 4.36843e-05, cumulative = 0.000100122
smoothSolver:  Solving for epsilon, Initial residual = 0.111033, Final residual = 0.00430918, No Iterations 3
bounding epsilon, min: -0.000995419 max: 1.60316 average: 1.08303
smoothSolver:  Solving for k, Initial residual = 0.0422066, Final residual = 0.00257529, No Iterations 3
ExecutionTime = 0.11 s  ClockTime = 0 s

Time = 8

smoothSolver:  Solving for Ux, Initial residual = 0.0872222, Final residual = 0.00399648, No Iterations 3
smoothSolver:  Solving for Uy, Initial residual = 0.0252767, Final residual = 0.00089773, No Iterations 2
smoothSolver:  Solving for Uz, Initial residual = 0.0373145, Final residual = 0.000695127, No Iterations 2
GAMG:  Solving for p, Initial residual = 0.204793, Final residual = 0.00763409, No Iterations 2
time step continuity errors : sum local = 0.000675563, global = 9.83838e-06, cumulative = 0.000109961
smoothSolver:  Solving for epsilon, Initial residual = 0.149741, Final residual = 0.00642656, No Iterations 3
bounding epsilon, min: -0.000726387 max: 1.43808 average: 1.00524
smoothSolver:  Solving for k, Initial residual = 0.0382446, Final residual = 0.00241372, No Iterations 3
ExecutionTime = 0.12 s  ClockTime = 0 s

Time = 9

smoothSolver:  Solving for Ux, Initial residual = 0.0756207, Final residual = 0.00372108, No Iterations 3
smoothSolver:  Solving for Uy, Initial residual = 0.0225025, Final residual = 0.000796305, No Iterations 2
smoothSolver:  Solving for Uz, Initial residual = 0.0340724, Final residual = 0.000641387, No Iterations 2
GAMG:  Solving for p, Initial residual = 0.167515, Final residual = 0.00758747, No Iterations 2
time step continuity errors : sum local = 0.00074071, global = 1.99538e-05, cumulative = 0.000129914
smoothSolver:  Solving for epsilon, Initial residual = 0.197734, Final residual = 0.00913647, No Iterations 3
bounding epsilon, min: -0.000931014 max: 1.30497 average: 0.940447
smoothSolver:  Solving for k, Initial residual = 0.0352895, Final residual = 0.00229415, No Iterations 3
ExecutionTime = 0.13 s  ClockTime = 0 s

Time = 10

smoothSolver:  Solving for Ux, Initial residual = 0.0538432, Final residual = 0.0030141, No Iterations 3
smoothSolver:  Solving for Uy, Initial residual = 0.0203524, Final residual = 0.000715028, No Iterations 2
smoothSolver:  Solving for Uz, Initial residual = 0.0308012, Final residual = 0.000586632, No Iterations 2
GAMG:  Solving for p, Initial residual = 0.138162, Final residual = 0.00542978, No Iterations 2
time step continuity errors : sum local = 0.000598133, global = -5.02535e-07, cumulative = 0.000129412
smoothSolver:  Solving for epsilon, Initial residual = 0.144093, Final residual = 0.00710964, No Iterations 3
bounding epsilon, min: -0.000353401 max: 1.20269 average: 0.885453
smoothSolver:  Solving for k, Initial residual = 0.0330418, Final residual = 0.00220155, No Iterations 3
ExecutionTime = 0.14 s  ClockTime = 0 s

Time = 11

smoothSolver:  Solving for Ux, Initial residual = 0.0507988, Final residual = 0.00308989, No Iterations 3
smoothSolver:  Solving for Uy, Initial residual = 0.0186902, Final residual = 0.000655405, No Iterations 2
smoothSolver:  Solving for Uz, Initial residual = 0.028204, Final residual = 0.000533149, No Iterations 2
GAMG:  Solving for p, Initial residual = 0.124641, Final residual = 0.00216684, No Iterations 2
time step continuity errors : sum local = 0.000256029, global = -5.83627e-05, cumulative = 7.10491e-05
smoothSolver:  Solving for epsilon, Initial residual = 0.110487, Final residual = 0.00573934, No Iterations 3
bounding epsilon, min: -8.50233e-05 max: 1.11825 average: 0.838116
smoothSolver:  Solving for k, Initial residual = 0.0312721, Final residual = 0.00212681, No Iterations 3
ExecutionTime = 0.15 s  ClockTime = 0 s

Time = 12

smoothSolver:  Solving for Ux, Initial residual = 0.0435114, Final residual = 0.00272829, No Iterations 3
smoothSolver:  Solving for Uy, Initial residual = 0.0173266, Final residual = 0.000607356, No Iterations 2
smoothSolver:  Solving for Uz, Initial residual = 0.0263113, Final residual = 0.000502915, No Iterations 2
GAMG:  Solving for p, Initial residual = 0.113156, Final residual = 0.00217235, No Iterations 2
time step continuity errors : sum local = 0.000273444, global = -5.59096e-05, cumulative = 1.51395e-05
smoothSolver:  Solving for epsilon, Initial residual = 0.090554, Final residual = 0.00493558, No Iterations 3
smoothSolver:  Solving for k, Initial residual = 0.0299015, Final residual = 0.00206969, No Iterations 3
ExecutionTime = 0.16 s  ClockTime = 0 s

Time = 13

smoothSolver:  Solving for Ux, Initial residual = 0.0394125, Final residual = 0.00238519, No Iterations 3
smoothSolver:  Solving for Uy, Initial residual = 0.0161972, Final residual = 0.000568799, No Iterations 2
smoothSolver:  Solving for Uz, Initial residual = 0.0247168, Final residual = 0.000467921, No Iterations 2
GAMG:  Solving for p, Initial residual = 0.105823, Final residual = 0.00217198, No Iterations 2
time step continuity errors : sum local = 0.00028651, global = -5.92316e-05, cumulative = -4.40922e-05
smoothSolver:  Solving for epsilon, Initial residual = 0.077449, Final residual = 0.00438767, No Iterations 3
smoothSolver:  Solving for k, Initial residual = 0.0288109, Final residual = 0.00202519, No Iterations 3
ExecutionTime = 0.17 s  ClockTime = 0 s

Time = 14

smoothSolver:  Solving for Ux, Initial residual = 0.0368659, Final residual = 0.00209719, No Iterations 3
smoothSolver:  Solving for Uy, Initial residual = 0.0151789, Final residual = 0.000534197, No Iterations 2
smoothSolver:  Solving for Uz, Initial residual = 0.0230609, Final residual = 0.000428173, No Iterations 2
GAMG:  Solving for p, Initial residual = 0.0969063, Final residual = 0.00193757, No Iterations 2
time step continuity errors : sum local = 0.000273643, global = -6.77382e-05, cumulative = -0.00011183
smoothSolver:  Solving for epsilon, Initial residual = 0.0685428, Final residual = 0.00401403, No Iterations 3
smoothSolver:  Solving for k, Initial residual = 0.0278978, Final residual = 0.00198507, No Iterations 3
ExecutionTime = 0.18 s  ClockTime = 0 s

Time = 15

smoothSolver:  Solving for Ux, Initial residual = 0.0348383, Final residual = 0.00191431, No Iterations 3
smoothSolver:  Solving for Uy, Initial residual = 0.0143775, Final residual = 0.000507273, No Iterations 2
smoothSolver:  Solving for Uz, Initial residual = 0.0216466, Final residual = 0.000397606, No Iterations 2
GAMG:  Solving for p, Initial residual = 0.0916885, Final residual = 0.0016595, No Iterations 2
time step continuity errors : sum local = 0.00024149, global = -6.23912e-05, cumulative = -0.000174222
smoothSolver:  Solving for epsilon, Initial residual = 0.0620855, Final residual = 0.00374436, No Iterations 3
smoothSolver:  Solving for k, Initial residual = 0.0271851, Final residual = 0.0019546, No Iterations 3
ExecutionTime = 0.2 s  ClockTime = 0 s

Time = 16

smoothSolver:  Solving for Ux, Initial residual = 0.0319805, Final residual = 0.00177416, No Iterations 3
smoothSolver:  Solving for Uy, Initial residual = 0.013614, Final residual = 0.000482548, No Iterations 2
smoothSolver:  Solving for Uz, Initial residual = 0.020409, Final residual = 0.000380532, No Iterations 2
GAMG:  Solving for p, Initial residual = 0.084441, Final residual = 0.00149628, No Iterations 2
time step continuity errors : sum local = 0.000231177, global = -6.47758e-05, cumulative = -0.000238997
smoothSolver:  Solving for epsilon, Initial residual = 0.0572832, Final residual = 0.0035335, No Iterations 3
smoothSolver:  Solving for k, Initial residual = 0.0265631, Final residual = 0.0019267, No Iterations 3
ExecutionTime = 0.21 s  ClockTime = 0 s

Time = 17

smoothSolver:  Solving for Ux, Initial residual = 0.0302373, Final residual = 0.001686, No Iterations 3
smoothSolver:  Solving for Uy, Initial residual = 0.0128953, Final residual = 0.000461503, No Iterations 2
smoothSolver:  Solving for Uz, Initial residual = 0.0192572, Final residual = 0.000363556, No Iterations 2
GAMG:  Solving for p, Initial residual = 0.0803183, Final residual = 0.00134228, No Iterations 2
time step continuity errors : sum local = 0.000218254, global = -6.03063e-05, cumulative = -0.000299304
smoothSolver:  Solving for epsilon, Initial residual = 0.0534055, Final residual = 0.00336448, No Iterations 3
smoothSolver:  Solving for k, Initial residual = 0.026055, Final residual = 0.00190724, No Iterations 3
ExecutionTime = 0.22 s  ClockTime = 0 s

Time = 18

smoothSolver:  Solving for Ux, Initial residual = 0.0298563, Final residual = 0.00165822, No Iterations 3
smoothSolver:  Solving for Uy, Initial residual = 0.0123107, Final residual = 0.000445227, No Iterations 2
smoothSolver:  Solving for Uz, Initial residual = 0.0181596, Final residual = 0.000346246, No Iterations 2
GAMG:  Solving for p, Initial residual = 0.0770293, Final residual = 0.00129884, No Iterations 2
time step continuity errors : sum local = 0.000221179, global = -6.50991e-05, cumulative = -0.000364403
smoothSolver:  Solving for epsilon, Initial residual = 0.0504362, Final residual = 0.0032397, No Iterations 3
smoothSolver:  Solving for k, Initial residual = 0.025607, Final residual = 0.00188395, No Iterations 3
ExecutionTime = 0.23 s  ClockTime = 0 s

Time = 19

smoothSolver:  Solving for Ux, Initial residual = 0.0288054, Final residual = 0.00159639, No Iterations 3
smoothSolver:  Solving for Uy, Initial residual = 0.0117943, Final residual = 0.000430417, No Iterations 2
smoothSolver:  Solving for Uz, Initial residual = 0.0172699, Final residual = 0.00033292, No Iterations 2
GAMG:  Solving for p, Initial residual = 0.0737086, Final residual = 0.00131619, No Iterations 2
time step continuity errors : sum local = 0.000232037, global = -4.3118e-05, cumulative = -0.000407521
smoothSolver:  Solving for epsilon, Initial residual = 0.0480158, Final residual = 0.00312512, No Iterations 3
smoothSolver:  Solving for k, Initial residual = 0.0252475, Final residual = 0.00186887, No Iterations 3
ExecutionTime = 0.24 s  ClockTime = 0 s

Time = 20

smoothSolver:  Solving for Ux, Initial residual = 0.0282489, Final residual = 0.00156383, No Iterations 3
smoothSolver:  Solving for Uy, Initial residual = 0.0113152, Final residual = 0.000417501, No Iterations 2
smoothSolver:  Solving for Uz, Initial residual = 0.0164837, Final residual = 0.000323586, No Iterations 2
GAMG:  Solving for p, Initial residual = 0.0687463, Final residual = 0.00112506, No Iterations 2
time step continuity errors : sum local = 0.000208067, global = -5.5776e-05, cumulative = -0.000463297
smoothSolver:  Solving for epsilon, Initial residual = 0.046238, Final residual = 0.00305455, No Iterations 3
smoothSolver:  Solving for k, Initial residual = 0.0249664, Final residual = 0.0018528, No Iterations 3
ExecutionTime = 0.25 s  ClockTime = 0 s

Time = 21

smoothSolver:  Solving for Ux, Initial residual = 0.0270875, Final residual = 0.00149805, No Iterations 3
smoothSolver:  Solving for Uy, Initial residual = 0.0109363, Final residual = 0.000409018, No Iterations 2
smoothSolver:  Solving for Uz, Initial residual = 0.0157773, Final residual = 0.000315971, No Iterations 2
GAMG:  Solving for p, Initial residual = 0.0659451, Final residual = 0.00105113, No Iterations 2
time step continuity errors : sum local = 0.000200249, global = -3.93701e-05, cumulative = -0.000502667
smoothSolver:  Solving for epsilon, Initial residual = 0.0445288, Final residual = 0.00297014, No Iterations 3
smoothSolver:  Solving for k, Initial residual = 0.0246996, Final residual = 0.00184224, No Iterations 3
ExecutionTime = 0.26 s  ClockTime = 0 s

Time = 22

smoothSolver:  Solving for Ux, Initial residual = 0.0263894, Final residual = 0.00146927, No Iterations 3
smoothSolver:  Solving for Uy, Initial residual = 0.0105392, Final residual = 0.000400658, No Iterations 2
smoothSolver:  Solving for Uz, Initial residual = 0.0150287, Final residual = 0.00030697, No Iterations 2
GAMG:  Solving for p, Initial residual = 0.0617893, Final residual = 0.00102999, No Iterations 2
time step continuity errors : sum local = 0.000206312, global = -2.81515e-05, cumulative = -0.000530819
smoothSolver:  Solving for epsilon, Initial residual = 0.0432232, Final residual = 0.00291557, No Iterations 3
smoothSolver:  Solving for k, Initial residual = 0.024479, Final residual = 0.00182865, No Iterations 3
ExecutionTime = 0.27 s  ClockTime = 0 s

Time = 23

smoothSolver:  Solving for Ux, Initial residual = 0.0260659, Final residual = 0.00146097, No Iterations 3
smoothSolver:  Solving for Uy, Initial residual = 0.0102253, Final residual = 0.000393357, No Iterations 2
smoothSolver:  Solving for Uz, Initial residual = 0.0144397, Final residual = 0.000300668, No Iterations 2
GAMG:  Solving for p, Initial residual = 0.0589247, Final residual = 0.00103189, No Iterations 2
time step continuity errors : sum local = 0.00021239, global = -4.33575e-05, cumulative = -0.000574176
smoothSolver:  Solving for epsilon, Initial residual = 0.042132, Final residual = 0.00285877, No Iterations 3
smoothSolver:  Solving for k, Initial residual = 0.0243143, Final residual = 0.00182211, No Iterations 3
ExecutionTime = 0.28 s  ClockTime = 0 s

Time = 24

smoothSolver:  Solving for Ux, Initial residual = 0.0244511, Final residual = 0.0013651, No Iterations 3
smoothSolver:  Solving for Uy, Initial residual = 0.00993247, Final residual = 0.000386359, No Iterations 2
smoothSolver:  Solving for Uz, Initial residual = 0.0139157, Final residual = 0.000294221, No Iterations 2
GAMG:  Solving for p, Initial residual = 0.0561411, Final residual = 0.00100353, No Iterations 2
time step continuity errors : sum local = 0.000214181, global = -4.76972e-05, cumulative = -0.000621873
smoothSolver:  Solving for epsilon, Initial residual = 0.0412385, Final residual = 0.00282003, No Iterations 3
smoothSolver:  Solving for k, Initial residual = 0.0241562, Final residual = 0.00181073, No Iterations 3
ExecutionTime = 0.29 s  ClockTime = 0 s

Time = 25

smoothSolver:  Solving for Ux, Initial residual = 0.0236247, Final residual = 0.00126958, No Iterations 3
smoothSolver:  Solving for Uy, Initial residual = 0.0096472, Final residual = 0.000379471, No Iterations 2
smoothSolver:  Solving for Uz, Initial residual = 0.0133767, Final residual = 0.000287004, No Iterations 2
GAMG:  Solving for p, Initial residual = 0.0535317, Final residual = 0.000917626, No Iterations 2
time step continuity errors : sum local = 0.000202456, global = -2.93354e-05, cumulative = -0.000651209
smoothSolver:  Solving for epsilon, Initial residual = 0.0403905, Final residual = 0.00277786, No Iterations 3
smoothSolver:  Solving for k, Initial residual = 0.0240184, Final residual = 0.00180526, No Iterations 3
ExecutionTime = 0.3 s  ClockTime = 0 s

Time = 26

smoothSolver:  Solving for Ux, Initial residual = 0.0228142, Final residual = 0.00122009, No Iterations 3
smoothSolver:  Solving for Uy, Initial residual = 0.00940436, Final residual = 0.000374082, No Iterations 2
smoothSolver:  Solving for Uz, Initial residual = 0.0129109, Final residual = 0.000280832, No Iterations 2
GAMG:  Solving for p, Initial residual = 0.0515397, Final residual = 0.00106196, No Iterations 2
time step continuity errors : sum local = 0.00023961, global = -2.25597e-05, cumulative = -0.000673768
smoothSolver:  Solving for epsilon, Initial residual = 0.0396675, Final residual = 0.00274326, No Iterations 3
smoothSolver:  Solving for k, Initial residual = 0.0238633, Final residual = 0.00179436, No Iterations 3
ExecutionTime = 0.31 s  ClockTime = 0 s

Time = 27

smoothSolver:  Solving for Ux, Initial residual = 0.021809, Final residual = 0.00119817, No Iterations 3
smoothSolver:  Solving for Uy, Initial residual = 0.00911988, Final residual = 0.000366511, No Iterations 2
smoothSolver:  Solving for Uz, Initial residual = 0.0125023, Final residual = 0.000275222, No Iterations 2
GAMG:  Solving for p, Initial residual = 0.04869, Final residual = 0.000927799, No Iterations 2
time step continuity errors : sum local = 0.000218804, global = -2.40549e-05, cumulative = -0.000697823
smoothSolver:  Solving for epsilon, Initial residual = 0.0390435, Final residual = 0.00270651, No Iterations 3
smoothSolver:  Solving for k, Initial residual = 0.0237663, Final residual = 0.00178933, No Iterations 3
ExecutionTime = 0.32 s  ClockTime = 0 s

Time = 28

smoothSolver:  Solving for Ux, Initial residual = 0.0210861, Final residual = 0.00117589, No Iterations 3
smoothSolver:  Solving for Uy, Initial residual = 0.00885176, Final residual = 0.000357966, No Iterations 2
smoothSolver:  Solving for Uz, Initial residual = 0.0120581, Final residual = 0.00026884, No Iterations 2
GAMG:  Solving for p, Initial residual = 0.046993, Final residual = 0.000787251, No Iterations 2
time step continuity errors : sum local = 0.000190677, global = -5.19647e-05, cumulative = -0.000749788
smoothSolver:  Solving for epsilon, Initial residual = 0.0385298, Final residual = 0.00268243, No Iterations 3
smoothSolver:  Solving for k, Initial residual = 0.0236752, Final residual = 0.00178091, No Iterations 3
ExecutionTime = 0.33 s  ClockTime = 0 s

Time = 29

smoothSolver:  Solving for Ux, Initial residual = 0.0203995, Final residual = 0.00111013, No Iterations 3
smoothSolver:  Solving for Uy, Initial residual = 0.00864147, Final residual = 0.000351179, No Iterations 2
smoothSolver:  Solving for Uz, Initial residual = 0.011703, Final residual = 0.000263591, No Iterations 2
GAMG:  Solving for p, Initial residual = 0.0457543, Final residual = 0.00090114, No Iterations 2
time step continuity errors : sum local = 0.000223428, global = -2.67411e-05, cumulative = -0.000776529
smoothSolver:  Solving for epsilon, Initial residual = 0.0379883, Final residual = 0.00264755, No Iterations 3
smoothSolver:  Solving for k, Initial residual = 0.0235677, Final residual = 0.00177369, No Iterations 3
ExecutionTime = 0.34 s  ClockTime = 0 s

Time = 30

smoothSolver:  Solving for Ux, Initial residual = 0.0196865, Final residual = 0.00110294, No Iterations 3
smoothSolver:  Solving for Uy, Initial residual = 0.00845787, Final residual = 0.000344054, No Iterations 2
smoothSolver:  Solving for Uz, Initial residual = 0.0113571, Final residual = 0.000257187, No Iterations 2
GAMG:  Solving for p, Initial residual = 0.0441762, Final residual = 0.000756186, No Iterations 2
time step continuity errors : sum local = 0.000192801, global = -5.44231e-05, cumulative = -0.000830952
smoothSolver:  Solving for epsilon, Initial residual = 0.0374732, Final residual = 0.00262203, No Iterations 3
smoothSolver:  Solving for k, Initial residual = 0.0234863, Final residual = 0.00176863, No Iterations 3
ExecutionTime = 0.35 s  ClockTime = 0 s

Time = 31

smoothSolver:  Solving for Ux, Initial residual = 0.0192956, Final residual = 0.00105014, No Iterations 3
smoothSolver:  Solving for Uy, Initial residual = 0.00828439, Final residual = 0.000336898, No Iterations 2
smoothSolver:  Solving for Uz, Initial residual = 0.0110712, Final residual = 0.000252013, No Iterations 2
GAMG:  Solving for p, Initial residual = 0.0425431, Final residual = 0.00100522, No Iterations 2
time step continuity errors : sum local = 0.000262853, global = -2.04309e-05, cumulative = -0.000851383
smoothSolver:  Solving for epsilon, Initial residual = 0.0371149, Final residual = 0.00259919, No Iterations 3
smoothSolver:  Solving for k, Initial residual = 0.0234224, Final residual = 0.00176151, No Iterations 3
ExecutionTime = 0.36 s  ClockTime = 0 s

Time = 32

smoothSolver:  Solving for Ux, Initial residual = 0.0187329, Final residual = 0.00106702, No Iterations 3
smoothSolver:  Solving for Uy, Initial residual = 0.00808832, Final residual = 0.000327122, No Iterations 2
smoothSolver:  Solving for Uz, Initial residual = 0.0107415, Final residual = 0.00024303, No Iterations 2
GAMG:  Solving for p, Initial residual = 0.0424093, Final residual = 0.000732121, No Iterations 2
time step continuity errors : sum local = 0.000196382, global = -5.47162e-05, cumulative = -0.000906099
smoothSolver:  Solving for epsilon, Initial residual = 0.0367855, Final residual = 0.00257979, No Iterations 3
smoothSolver:  Solving for k, Initial residual = 0.0233544, Final residual = 0.00175568, No Iterations 3
ExecutionTime = 0.37 s  ClockTime = 0 s

Time = 33

smoothSolver:  Solving for Ux, Initial residual = 0.018073, Final residual = 0.00101089, No Iterations 3
smoothSolver:  Solving for Uy, Initial residual = 0.00791526, Final residual = 0.000317504, No Iterations 2
smoothSolver:  Solving for Uz, Initial residual = 0.0104366, Final residual = 0.000235818, No Iterations 2
GAMG:  Solving for p, Initial residual = 0.0422431, Final residual = 0.000940302, No Iterations 2
time step continuity errors : sum local = 0.00025761, global = -1.95361e-05, cumulative = -0.000925635
smoothSolver:  Solving for epsilon, Initial residual = 0.0364348, Final residual = 0.00255863, No Iterations 3
smoothSolver:  Solving for k, Initial residual = 0.023281, Final residual = 0.00174947, No Iterations 3
ExecutionTime = 0.38 s  ClockTime = 0 s

Time = 34

smoothSolver:  Solving for Ux, Initial residual = 0.0179899, Final residual = 0.00102519, No Iterations 3
smoothSolver:  Solving for Uy, Initial residual = 0.00777498, Final residual = 0.000308239, No Iterations 2
smoothSolver:  Solving for Uz, Initial residual = 0.0102012, Final residual = 0.00022823, No Iterations 2
GAMG:  Solving for p, Initial residual = 0.0399872, Final residual = 0.000743484, No Iterations 2
time step continuity errors : sum local = 0.000209372, global = -2.99055e-05, cumulative = -0.000955541
smoothSolver:  Solving for epsilon, Initial residual = 0.0361353, Final residual = 0.0025398, No Iterations 3
smoothSolver:  Solving for k, Initial residual = 0.02322, Final residual = 0.00174375, No Iterations 3
ExecutionTime = 0.39 s  ClockTime = 0 s

Time = 35

smoothSolver:  Solving for Ux, Initial residual = 0.0176451, Final residual = 0.0010018, No Iterations 3
smoothSolver:  Solving for Uy, Initial residual = 0.00762641, Final residual = 0.000297902, No Iterations 2
smoothSolver:  Solving for Uz, Initial residual = 0.00993067, Final residual = 0.00022042, No Iterations 2
GAMG:  Solving for p, Initial residual = 0.0380388, Final residual = 0.000709132, No Iterations 2
time step continuity errors : sum local = 0.000204073, global = -4.67427e-05, cumulative = -0.00100228
smoothSolver:  Solving for epsilon, Initial residual = 0.0357837, Final residual = 0.00251535, No Iterations 3
smoothSolver:  Solving for k, Initial residual = 0.023175, Final residual = 0.00173994, No Iterations 3
ExecutionTime = 0.4 s  ClockTime = 0 s

Time = 36

smoothSolver:  Solving for Ux, Initial residual = 0.017004, Final residual = 0.000941636, No Iterations 3
smoothSolver:  Solving for Uy, Initial residual = 0.00752044, Final residual = 0.000288741, No Iterations 2
smoothSolver:  Solving for Uz, Initial residual = 0.00970369, Final residual = 0.000214367, No Iterations 2
GAMG:  Solving for p, Initial residual = 0.0369974, Final residual = 0.000856909, No Iterations 2
time step continuity errors : sum local = 0.000251616, global = -2.32842e-05, cumulative = -0.00102557
smoothSolver:  Solving for epsilon, Initial residual = 0.0355653, Final residual = 0.00250026, No Iterations 3
smoothSolver:  Solving for k, Initial residual = 0.0231134, Final residual = 0.00173237, No Iterations 3
ExecutionTime = 0.41 s  ClockTime = 0 s

Time = 37

smoothSolver:  Solving for Ux, Initial residual = 0.0166365, Final residual = 0.000934193, No Iterations 3
smoothSolver:  Solving for Uy, Initial residual = 0.00738878, Final residual = 0.000278563, No Iterations 2
smoothSolver:  Solving for Uz, Initial residual = 0.00945819, Final residual = 0.000206966, No Iterations 2
GAMG:  Solving for p, Initial residual = 0.0361767, Final residual = 0.000688298, No Iterations 2
time step continuity errors : sum local = 0.000206909, global = -4.34947e-05, cumulative = -0.00106906
smoothSolver:  Solving for epsilon, Initial residual = 0.0353108, Final residual = 0.00248252, No Iterations 3
smoothSolver:  Solving for k, Initial residual = 0.0230584, Final residual = 0.00172421, No Iterations 3
ExecutionTime = 0.42 s  ClockTime = 0 s

Time = 38

smoothSolver:  Solving for Ux, Initial residual = 0.0161757, Final residual = 0.000886458, No Iterations 3
smoothSolver:  Solving for Uy, Initial residual = 0.00728933, Final residual = 0.000269337, No Iterations 2
smoothSolver:  Solving for Uz, Initial residual = 0.00924051, Final residual = 0.000200258, No Iterations 2
GAMG:  Solving for p, Initial residual = 0.0354766, Final residual = 0.000896912, No Iterations 2
time step continuity errors : sum local = 0.000275318, global = -5.80613e-06, cumulative = -0.00107487
smoothSolver:  Solving for epsilon, Initial residual = 0.0350433, Final residual = 0.00246255, No Iterations 3
smoothSolver:  Solving for k, Initial residual = 0.0230156, Final residual = 0.0017202, No Iterations 3
ExecutionTime = 0.43 s  ClockTime = 1 s

Time = 39

smoothSolver:  Solving for Ux, Initial residual = 0.015857, Final residual = 0.000888703, No Iterations 3
smoothSolver:  Solving for Uy, Initial residual = 0.00716242, Final residual = 0.00025898, No Iterations 2
smoothSolver:  Solving for Uz, Initial residual = 0.0090108, Final residual = 0.000192154, No Iterations 2
GAMG:  Solving for p, Initial residual = 0.0346962, Final residual = 0.000671648, No Iterations 2
time step continuity errors : sum local = 0.000211482, global = -2.89566e-05, cumulative = -0.00110383
smoothSolver:  Solving for epsilon, Initial residual = 0.0347668, Final residual = 0.00244437, No Iterations 3
smoothSolver:  Solving for k, Initial residual = 0.0229718, Final residual = 0.00171394, No Iterations 3
ExecutionTime = 0.44 s  ClockTime = 1 s

Time = 40

smoothSolver:  Solving for Ux, Initial residual = 0.0154845, Final residual = 0.000862003, No Iterations 3
smoothSolver:  Solving for Uy, Initial residual = 0.00705493, Final residual = 0.000248926, No Iterations 2
smoothSolver:  Solving for Uz, Initial residual = 0.00878889, Final residual = 0.000184416, No Iterations 2
GAMG:  Solving for p, Initial residual = 0.0341177, Final residual = 0.000634143, No Iterations 2
time step continuity errors : sum local = 0.000203077, global = -4.40615e-05, cumulative = -0.00114789
smoothSolver:  Solving for epsilon, Initial residual = 0.0345306, Final residual = 0.0024245, No Iterations 3
smoothSolver:  Solving for k, Initial residual = 0.0228936, Final residual = 0.00170548, No Iterations 3
ExecutionTime = 0.45 s  ClockTime = 1 s

Time = 41

smoothSolver:  Solving for Ux, Initial residual = 0.0151612, Final residual = 0.000814071, No Iterations 3
smoothSolver:  Solving for Uy, Initial residual = 0.0069671, Final residual = 0.000240102, No Iterations 2
smoothSolver:  Solving for Uz, Initial residual = 0.00859312, Final residual = 0.000177526, No Iterations 2
GAMG:  Solving for p, Initial residual = 0.0330753, Final residual = 0.000744367, No Iterations 2
time step continuity errors : sum local = 0.000243676, global = -2.35e-05, cumulative = -0.00117139
smoothSolver:  Solving for epsilon, Initial residual = 0.0342763, Final residual = 0.00240557, No Iterations 3
smoothSolver:  Solving for k, Initial residual = 0.0228397, Final residual = 0.00169924, No Iterations 3
ExecutionTime = 0.46 s  ClockTime = 1 s

Time = 42

smoothSolver:  Solving for Ux, Initial residual = 0.0147487, Final residual = 0.000803227, No Iterations 3
smoothSolver:  Solving for Uy, Initial residual = 0.00687579, Final residual = 0.000231788, No Iterations 2
smoothSolver:  Solving for Uz, Initial residual = 0.00840222, Final residual = 0.000170121, No Iterations 2
GAMG:  Solving for p, Initial residual = 0.0325589, Final residual = 0.000744975, No Iterations 2
time step continuity errors : sum local = 0.000248306, global = -1.81549e-05, cumulative = -0.00118954
smoothSolver:  Solving for epsilon, Initial residual = 0.03406, Final residual = 0.00238621, No Iterations 3
smoothSolver:  Solving for k, Initial residual = 0.0227976, Final residual = 0.00169343, No Iterations 3
ExecutionTime = 0.46 s  ClockTime = 1 s

Time = 43

smoothSolver:  Solving for Ux, Initial residual = 0.0144922, Final residual = 0.000794469, No Iterations 3
smoothSolver:  Solving for Uy, Initial residual = 0.00677434, Final residual = 0.000223299, No Iterations 2
smoothSolver:  Solving for Uz, Initial residual = 0.00822116, Final residual = 0.000162818, No Iterations 2
GAMG:  Solving for p, Initial residual = 0.0320983, Final residual = 0.000627236, No Iterations 2
time step continuity errors : sum local = 0.000213682, global = -4.82913e-05, cumulative = -0.00123783
smoothSolver:  Solving for epsilon, Initial residual = 0.0338403, Final residual = 0.0023711, No Iterations 3
smoothSolver:  Solving for k, Initial residual = 0.0227289, Final residual = 0.0016843, No Iterations 3
ExecutionTime = 0.47 s  ClockTime = 1 s

Time = 44

smoothSolver:  Solving for Ux, Initial residual = 0.0142441, Final residual = 0.000749312, No Iterations 3
smoothSolver:  Solving for Uy, Initial residual = 0.00671014, Final residual = 0.000216748, No Iterations 2
smoothSolver:  Solving for Uz, Initial residual = 0.0080554, Final residual = 0.000156573, No Iterations 2
GAMG:  Solving for p, Initial residual = 0.0316185, Final residual = 0.000756765, No Iterations 2
time step continuity errors : sum local = 0.00026216, global = -1.55588e-05, cumulative = -0.00125339
smoothSolver:  Solving for epsilon, Initial residual = 0.0336574, Final residual = 0.00235706, No Iterations 3
smoothSolver:  Solving for k, Initial residual = 0.0226775, Final residual = 0.00167693, No Iterations 3
ExecutionTime = 0.48 s  ClockTime = 1 s

Time = 45

smoothSolver:  Solving for Ux, Initial residual = 0.0138656, Final residual = 0.000746014, No Iterations 3
smoothSolver:  Solving for Uy, Initial residual = 0.00661983, Final residual = 0.000209856, No Iterations 2
smoothSolver:  Solving for Uz, Initial residual = 0.00790627, Final residual = 0.000149355, No Iterations 2
GAMG:  Solving for p, Initial residual = 0.0315958, Final residual = 0.000767784, No Iterations 2
time step continuity errors : sum local = 0.000271271, global = -1.06516e-05, cumulative = -0.00126404
smoothSolver:  Solving for epsilon, Initial residual = 0.0334599, Final residual = 0.0023414, No Iterations 3
smoothSolver:  Solving for k, Initial residual = 0.0226263, Final residual = 0.00167046, No Iterations 3
ExecutionTime = 0.48 s  ClockTime = 1 s

Time = 46

smoothSolver:  Solving for Ux, Initial residual = 0.0140687, Final residual = 0.000758541, No Iterations 3
smoothSolver:  Solving for Uy, Initial residual = 0.0065403, Final residual = 0.000203878, No Iterations 2
smoothSolver:  Solving for Uz, Initial residual = 0.00775369, Final residual = 0.000143372, No Iterations 2
GAMG:  Solving for p, Initial residual = 0.0315315, Final residual = 0.000605592, No Iterations 2
time step continuity errors : sum local = 0.000216635, global = -4.29116e-05, cumulative = -0.00130695
smoothSolver:  Solving for epsilon, Initial residual = 0.0332564, Final residual = 0.00232256, No Iterations 3
smoothSolver:  Solving for k, Initial residual = 0.0225843, Final residual = 0.00166356, No Iterations 3
ExecutionTime = 0.49 s  ClockTime = 1 s

Time = 47

smoothSolver:  Solving for Ux, Initial residual = 0.0135815, Final residual = 0.000712512, No Iterations 3
smoothSolver:  Solving for Uy, Initial residual = 0.00646022, Final residual = 0.000198619, No Iterations 2
smoothSolver:  Solving for Uz, Initial residual = 0.00760534, Final residual = 0.00013799, No Iterations 2
GAMG:  Solving for p, Initial residual = 0.0308917, Final residual = 0.000615707, No Iterations 2
time step continuity errors : sum local = 0.000224118, global = -4.82895e-05, cumulative = -0.00135524
smoothSolver:  Solving for epsilon, Initial residual = 0.033064, Final residual = 0.00230795, No Iterations 3
smoothSolver:  Solving for k, Initial residual = 0.0225315, Final residual = 0.00165634, No Iterations 3
ExecutionTime = 0.49 s  ClockTime = 1 s

Time = 48

smoothSolver:  Solving for Ux, Initial residual = 0.0136881, Final residual = 0.000686921, No Iterations 3
smoothSolver:  Solving for Uy, Initial residual = 0.00640284, Final residual = 0.000194388, No Iterations 2
smoothSolver:  Solving for Uz, Initial residual = 0.00747908, Final residual = 0.000133468, No Iterations 2
GAMG:  Solving for p, Initial residual = 0.0304376, Final residual = 0.000805375, No Iterations 2
time step continuity errors : sum local = 0.000297508, global = -1.21426e-05, cumulative = -0.00136739
smoothSolver:  Solving for epsilon, Initial residual = 0.0328094, Final residual = 0.00228684, No Iterations 3
smoothSolver:  Solving for k, Initial residual = 0.0224545, Final residual = 0.00164619, No Iterations 3
ExecutionTime = 0.5 s  ClockTime = 1 s

Time = 49

smoothSolver:  Solving for Ux, Initial residual = 0.0134379, Final residual = 0.000697835, No Iterations 3
smoothSolver:  Solving for Uy, Initial residual = 0.00634056, Final residual = 0.000190436, No Iterations 2
smoothSolver:  Solving for Uz, Initial residual = 0.00734161, Final residual = 0.000128109, No Iterations 2
GAMG:  Solving for p, Initial residual = 0.0296619, Final residual = 0.000728845, No Iterations 2
time step continuity errors : sum local = 0.000274996, global = -1.33466e-05, cumulative = -0.00138073
smoothSolver:  Solving for epsilon, Initial residual = 0.032587, Final residual = 0.00227214, No Iterations 3
smoothSolver:  Solving for k, Initial residual = 0.0223889, Final residual = 0.00163864, No Iterations 3
ExecutionTime = 0.5 s  ClockTime = 1 s

Time = 50

smoothSolver:  Solving for Ux, Initial residual = 0.0138081, Final residual = 0.000713216, No Iterations 3
smoothSolver:  Solving for Uy, Initial residual = 0.00626475, Final residual = 0.000186431, No Iterations 2
smoothSolver:  Solving for Uz, Initial residual = 0.00722489, Final residual = 0.000123981, No Iterations 2
GAMG:  Solving for p, Initial residual = 0.029135, Final residual = 0.000575163, No Iterations 2
time step continuity errors : sum local = 0.000220858, global = -4.31106e-05, cumulative = -0.00142384
smoothSolver:  Solving for epsilon, Initial residual = 0.0324451, Final residual = 0.00225773, No Iterations 3
smoothSolver:  Solving for k, Initial residual = 0.0223016, Final residual = 0.00162623, No Iterations 3
ExecutionTime = 0.51 s  ClockTime = 1 s

Time = 51

smoothSolver:  Solving for Ux, Initial residual = 0.0132642, Final residual = 0.000676232, No Iterations 3
smoothSolver:  Solving for Uy, Initial residual = 0.00619248, Final residual = 0.000182848, No Iterations 2
smoothSolver:  Solving for Uz, Initial residual = 0.0070946, Final residual = 0.000120445, No Iterations 2
GAMG:  Solving for p, Initial residual = 0.0291662, Final residual = 0.000584694, No Iterations 2
time step continuity errors : sum local = 0.00022741, global = -4.51538e-05, cumulative = -0.001469
smoothSolver:  Solving for epsilon, Initial residual = 0.0322355, Final residual = 0.00223836, No Iterations 3
smoothSolver:  Solving for k, Initial residual = 0.0222932, Final residual = 0.00162316, No Iterations 3
ExecutionTime = 0.52 s  ClockTime = 1 s

Time = 52

smoothSolver:  Solving for Ux, Initial residual = 0.0132002, Final residual = 0.000650447, No Iterations 3
smoothSolver:  Solving for Uy, Initial residual = 0.00614041, Final residual = 0.000179991, No Iterations 2
smoothSolver:  Solving for Uz, Initial residual = 0.00700185, Final residual = 0.000117426, No Iterations 2
GAMG:  Solving for p, Initial residual = 0.0290334, Final residual = 0.000751111, No Iterations 2
time step continuity errors : sum local = 0.000296412, global = -1.01876e-05, cumulative = -0.00147919
smoothSolver:  Solving for epsilon, Initial residual = 0.0320882, Final residual = 0.00222542, No Iterations 3
smoothSolver:  Solving for k, Initial residual = 0.0221997, Final residual = 0.00161345, No Iterations 3
ExecutionTime = 0.52 s  ClockTime = 1 s

Time = 53

smoothSolver:  Solving for Ux, Initial residual = 0.0132313, Final residual = 0.000671997, No Iterations 3
smoothSolver:  Solving for Uy, Initial residual = 0.00609953, Final residual = 0.000177365, No Iterations 2
smoothSolver:  Solving for Uz, Initial residual = 0.00691122, Final residual = 0.000113782, No Iterations 2
GAMG:  Solving for p, Initial residual = 0.0285028, Final residual = 0.000581966, No Iterations 2
time step continuity errors : sum local = 0.000234232, global = -4.76167e-05, cumulative = -0.0015268
smoothSolver:  Solving for epsilon, Initial residual = 0.0318427, Final residual = 0.00220667, No Iterations 3
smoothSolver:  Solving for k, Initial residual = 0.0221206, Final residual = 0.00160264, No Iterations 3
ExecutionTime = 0.53 s  ClockTime = 1 s

Time = 54

smoothSolver:  Solving for Ux, Initial residual = 0.0129737, Final residual = 0.000646194, No Iterations 3
smoothSolver:  Solving for Uy, Initial residual = 0.0060427, Final residual = 0.000174599, No Iterations 2
smoothSolver:  Solving for Uz, Initial residual = 0.00681611, Final residual = 0.000110871, No Iterations 2
GAMG:  Solving for p, Initial residual = 0.0282341, Final residual = 0.000648681, No Iterations 2
time step continuity errors : sum local = 0.000264292, global = -1.93471e-05, cumulative = -0.00154615
smoothSolver:  Solving for epsilon, Initial residual = 0.0316484, Final residual = 0.00218936, No Iterations 3
smoothSolver:  Solving for k, Initial residual = 0.0220726, Final residual = 0.00159304, No Iterations 3
ExecutionTime = 0.53 s  ClockTime = 1 s

Time = 55

smoothSolver:  Solving for Ux, Initial residual = 0.013084, Final residual = 0.000656228, No Iterations 3
smoothSolver:  Solving for Uy, Initial residual = 0.00599678, Final residual = 0.000172228, No Iterations 2
smoothSolver:  Solving for Uz, Initial residual = 0.00672502, Final residual = 0.000107911, No Iterations 2
GAMG:  Solving for p, Initial residual = 0.0277211, Final residual = 0.000555658, No Iterations 2
time step continuity errors : sum local = 0.000230465, global = -2.91103e-05, cumulative = -0.00157526
smoothSolver:  Solving for epsilon, Initial residual = 0.0313185, Final residual = 0.00216204, No Iterations 3
smoothSolver:  Solving for k, Initial residual = 0.0220253, Final residual = 0.00158601, No Iterations 3
ExecutionTime = 0.54 s  ClockTime = 1 s

Time = 56

smoothSolver:  Solving for Ux, Initial residual = 0.0131431, Final residual = 0.000653257, No Iterations 3
smoothSolver:  Solving for Uy, Initial residual = 0.0059433, Final residual = 0.000169761, No Iterations 2
smoothSolver:  Solving for Uz, Initial residual = 0.00663206, Final residual = 0.000105869, No Iterations 2
GAMG:  Solving for p, Initial residual = 0.0275354, Final residual = 0.000554327, No Iterations 2
time step continuity errors : sum local = 0.000232982, global = -4.59964e-05, cumulative = -0.00162126
smoothSolver:  Solving for epsilon, Initial residual = 0.031264, Final residual = 0.0021534, No Iterations 3
smoothSolver:  Solving for k, Initial residual = 0.0219353, Final residual = 0.00157535, No Iterations 3
ExecutionTime = 0.54 s  ClockTime = 1 s

Time = 57

smoothSolver:  Solving for Ux, Initial residual = 0.0129651, Final residual = 0.000625367, No Iterations 3
smoothSolver:  Solving for Uy, Initial residual = 0.00590796, Final residual = 0.000167861, No Iterations 2
smoothSolver:  Solving for Uz, Initial residual = 0.00653621, Final residual = 0.000104297, No Iterations 2
GAMG:  Solving for p, Initial residual = 0.0271513, Final residual = 0.00055164, No Iterations 2
time step continuity errors : sum local = 0.000235042, global = -2.73307e-05, cumulative = -0.00164859
smoothSolver:  Solving for epsilon, Initial residual = 0.030979, Final residual = 0.00212891, No Iterations 3
smoothSolver:  Solving for k, Initial residual = 0.0218701, Final residual = 0.00156638, No Iterations 3
ExecutionTime = 0.55 s  ClockTime = 1 s

Time = 58

smoothSolver:  Solving for Ux, Initial residual = 0.0129718, Final residual = 0.000622022, No Iterations 3
smoothSolver:  Solving for Uy, Initial residual = 0.00586559, Final residual = 0.000165652, No Iterations 2
smoothSolver:  Solving for Uz, Initial residual = 0.00645109, Final residual = 0.00010257, No Iterations 2
GAMG:  Solving for p, Initial residual = 0.0275483, Final residual = 0.000557367, No Iterations 2
time step continuity errors : sum local = 0.000240721, global = -4.97126e-05, cumulative = -0.0016983
smoothSolver:  Solving for epsilon, Initial residual = 0.0308069, Final residual = 0.00211459, No Iterations 3
smoothSolver:  Solving for k, Initial residual = 0.0218164, Final residual = 0.00155932, No Iterations 3
ExecutionTime = 0.56 s  ClockTime = 1 s

Time = 59

smoothSolver:  Solving for Ux, Initial residual = 0.0130198, Final residual = 0.000603832, No Iterations 3
smoothSolver:  Solving for Uy, Initial residual = 0.00582744, Final residual = 0.000163802, No Iterations 2
smoothSolver:  Solving for Uz, Initial residual = 0.00637714, Final residual = 0.000101333, No Iterations 2
GAMG:  Solving for p, Initial residual = 0.0273289, Final residual = 0.000649491, No Iterations 2
time step continuity errors : sum local = 0.000284217, global = -1.78013e-05, cumulative = -0.0017161
smoothSolver:  Solving for epsilon, Initial residual = 0.0305035, Final residual = 0.00208675, No Iterations 3
smoothSolver:  Solving for k, Initial residual = 0.0217503, Final residual = 0.00154837, No Iterations 3
ExecutionTime = 0.56 s  ClockTime = 1 s

Time = 60

smoothSolver:  Solving for Ux, Initial residual = 0.012989, Final residual = 0.000617699, No Iterations 3
smoothSolver:  Solving for Uy, Initial residual = 0.00577825, Final residual = 0.000162018, No Iterations 2
smoothSolver:  Solving for Uz, Initial residual = 0.00629401, Final residual = 9.97168e-05, No Iterations 2
GAMG:  Solving for p, Initial residual = 0.0266436, Final residual = 0.000569686, No Iterations 2
time step continuity errors : sum local = 0.000253857, global = -2.26306e-05, cumulative = -0.00173873
smoothSolver:  Solving for epsilon, Initial residual = 0.0304014, Final residual = 0.00207632, No Iterations 3
smoothSolver:  Solving for k, Initial residual = 0.0216993, Final residual = 0.00153923, No Iterations 3
ExecutionTime = 0.57 s  ClockTime = 1 s

Time = 61

smoothSolver:  Solving for Ux, Initial residual = 0.0131584, Final residual = 0.000621264, No Iterations 3
smoothSolver:  Solving for Uy, Initial residual = 0.00573779, Final residual = 0.000159838, No Iterations 2
smoothSolver:  Solving for Uz, Initial residual = 0.00620561, Final residual = 9.85535e-05, No Iterations 2
GAMG:  Solving for p, Initial residual = 0.0277087, Final residual = 0.000554687, No Iterations 2
time step continuity errors : sum local = 0.000249313, global = -4.48238e-05, cumulative = -0.00178356
smoothSolver:  Solving for epsilon, Initial residual = 0.0301632, Final residual = 0.00205404, No Iterations 3
smoothSolver:  Solving for k, Initial residual = 0.0215909, Final residual = 0.00152669, No Iterations 3
ExecutionTime = 0.57 s  ClockTime = 1 s

Time = 62

smoothSolver:  Solving for Ux, Initial residual = 0.0129001, Final residual = 0.000594971, No Iterations 3
smoothSolver:  Solving for Uy, Initial residual = 0.00569472, Final residual = 0.000157536, No Iterations 2
smoothSolver:  Solving for Uz, Initial residual = 0.00611891, Final residual = 9.70028e-05, No Iterations 2
GAMG:  Solving for p, Initial residual = 0.0261005, Final residual = 0.000665264, No Iterations 2
time step continuity errors : sum local = 0.000303331, global = -9.04567e-06, cumulative = -0.0017926
smoothSolver:  Solving for epsilon, Initial residual = 0.0298997, Final residual = 0.00203364, No Iterations 3
smoothSolver:  Solving for k, Initial residual = 0.021536, Final residual = 0.00152017, No Iterations 3
ExecutionTime = 0.58 s  ClockTime = 1 s

Time = 63

smoothSolver:  Solving for Ux, Initial residual = 0.0132027, Final residual = 0.000603605, No Iterations 3
smoothSolver:  Solving for Uy, Initial residual = 0.00565818, Final residual = 0.000155233, No Iterations 2
smoothSolver:  Solving for Uz, Initial residual = 0.00603018, Final residual = 9.52827e-05, No Iterations 2
GAMG:  Solving for p, Initial residual = 0.0254834, Final residual = 0.000565294, No Iterations 2
time step continuity errors : sum local = 0.000261501, global = -4.12935e-05, cumulative = -0.00183389
smoothSolver:  Solving for epsilon, Initial residual = 0.029696, Final residual = 0.00201106, No Iterations 3
smoothSolver:  Solving for k, Initial residual = 0.0214873, Final residual = 0.00151106, No Iterations 3
ExecutionTime = 0.58 s  ClockTime = 1 s

Time = 64

smoothSolver:  Solving for Ux, Initial residual = 0.0129132, Final residual = 0.000577457, No Iterations 3
smoothSolver:  Solving for Uy, Initial residual = 0.00563551, Final residual = 0.000153351, No Iterations 2
smoothSolver:  Solving for Uz, Initial residual = 0.00597024, Final residual = 9.53536e-05, No Iterations 2
GAMG:  Solving for p, Initial residual = 0.0255634, Final residual = 0.000584162, No Iterations 2
time step continuity errors : sum local = 0.000272338, global = -4.68096e-05, cumulative = -0.0018807
smoothSolver:  Solving for epsilon, Initial residual = 0.0295635, Final residual = 0.00200047, No Iterations 3
smoothSolver:  Solving for k, Initial residual = 0.0214271, Final residual = 0.00150134, No Iterations 3
ExecutionTime = 0.59 s  ClockTime = 1 s

Time = 65

smoothSolver:  Solving for Ux, Initial residual = 0.0129893, Final residual = 0.000556612, No Iterations 3
smoothSolver:  Solving for Uy, Initial residual = 0.00560291, Final residual = 0.000151784, No Iterations 2
smoothSolver:  Solving for Uz, Initial residual = 0.00590724, Final residual = 9.55316e-05, No Iterations 2
GAMG:  Solving for p, Initial residual = 0.0256839, Final residual = 0.000529843, No Iterations 2
time step continuity errors : sum local = 0.000251125, global = -4.13137e-05, cumulative = -0.00192202
smoothSolver:  Solving for epsilon, Initial residual = 0.0293325, Final residual = 0.00197795, No Iterations 3
smoothSolver:  Solving for k, Initial residual = 0.021345, Final residual = 0.00148886, No Iterations 3
ExecutionTime = 0.6 s  ClockTime = 1 s

Time = 66

smoothSolver:  Solving for Ux, Initial residual = 0.0127642, Final residual = 0.000551077, No Iterations 3
smoothSolver:  Solving for Uy, Initial residual = 0.00556577, Final residual = 0.000149852, No Iterations 2
smoothSolver:  Solving for Uz, Initial residual = 0.0058418, Final residual = 9.4215e-05, No Iterations 2
GAMG:  Solving for p, Initial residual = 0.0256511, Final residual = 0.000515168, No Iterations 2
time step continuity errors : sum local = 0.000246339, global = -3.87802e-05, cumulative = -0.0019608
smoothSolver:  Solving for epsilon, Initial residual = 0.0291748, Final residual = 0.00196123, No Iterations 3
smoothSolver:  Solving for k, Initial residual = 0.0212744, Final residual = 0.00148081, No Iterations 3
ExecutionTime = 0.6 s  ClockTime = 1 s

Time = 67

smoothSolver:  Solving for Ux, Initial residual = 0.0126874, Final residual = 0.000552356, No Iterations 3
smoothSolver:  Solving for Uy, Initial residual = 0.00552325, Final residual = 0.000147848, No Iterations 2
smoothSolver:  Solving for Uz, Initial residual = 0.00576689, Final residual = 9.31134e-05, No Iterations 2
GAMG:  Solving for p, Initial residual = 0.0245854, Final residual = 0.000504248, No Iterations 2
time step continuity errors : sum local = 0.000244155, global = -3.7785e-05, cumulative = -0.00199858
smoothSolver:  Solving for epsilon, Initial residual = 0.0288913, Final residual = 0.00193567, No Iterations 3
smoothSolver:  Solving for k, Initial residual = 0.0212059, Final residual = 0.00146785, No Iterations 3
ExecutionTime = 0.61 s  ClockTime = 1 s

Time = 68

smoothSolver:  Solving for Ux, Initial residual = 0.0128705, Final residual = 0.000553682, No Iterations 3
smoothSolver:  Solving for Uy, Initial residual = 0.00548752, Final residual = 0.000146258, No Iterations 2
smoothSolver:  Solving for Uz, Initial residual = 0.00568615, Final residual = 9.22997e-05, No Iterations 2
GAMG:  Solving for p, Initial residual = 0.0246751, Final residual = 0.000494676, No Iterations 2
time step continuity errors : sum local = 0.00024331, global = -3.7979e-05, cumulative = -0.00203656
smoothSolver:  Solving for epsilon, Initial residual = 0.0287253, Final residual = 0.00191688, No Iterations 3
smoothSolver:  Solving for k, Initial residual = 0.0211398, Final residual = 0.00145904, No Iterations 3
ExecutionTime = 0.61 s  ClockTime = 1 s

Time = 69

smoothSolver:  Solving for Ux, Initial residual = 0.0131361, Final residual = 0.000554549, No Iterations 3
smoothSolver:  Solving for Uy, Initial residual = 0.00547041, Final residual = 0.000145108, No Iterations 2
smoothSolver:  Solving for Uz, Initial residual = 0.00561282, Final residual = 9.12324e-05, No Iterations 2
GAMG:  Solving for p, Initial residual = 0.0237326, Final residual = 0.00049015, No Iterations 2
time step continuity errors : sum local = 0.000243265, global = -3.13341e-05, cumulative = -0.0020679
smoothSolver:  Solving for epsilon, Initial residual = 0.0285274, Final residual = 0.00190021, No Iterations 3
smoothSolver:  Solving for k, Initial residual = 0.0210794, Final residual = 0.00144531, No Iterations 3
ExecutionTime = 0.62 s  ClockTime = 1 s

Time = 70

smoothSolver:  Solving for Ux, Initial residual = 0.0134185, Final residual = 0.000554203, No Iterations 3
smoothSolver:  Solving for Uy, Initial residual = 0.00544883, Final residual = 0.000143692, No Iterations 2
smoothSolver:  Solving for Uz, Initial residual = 0.00554591, Final residual = 9.02619e-05, No Iterations 2
GAMG:  Solving for p, Initial residual = 0.0230375, Final residual = 0.000515239, No Iterations 2
time step continuity errors : sum local = 0.00025896, global = -3.93065e-05, cumulative = -0.0021072
smoothSolver:  Solving for epsilon, Initial residual = 0.0283753, Final residual = 0.00188222, No Iterations 3
smoothSolver:  Solving for k, Initial residual = 0.0210032, Final residual = 0.00143839, No Iterations 3
ExecutionTime = 0.62 s  ClockTime = 1 s

Time = 71

smoothSolver:  Solving for Ux, Initial residual = 0.0130364, Final residual = 0.00129702, No Iterations 2
smoothSolver:  Solving for Uy, Initial residual = 0.00543424, Final residual = 0.0001425, No Iterations 2
smoothSolver:  Solving for Uz, Initial residual = 0.00547963, Final residual = 8.94977e-05, No Iterations 2
GAMG:  Solving for p, Initial residual = 0.0225645, Final residual = 0.000506207, No Iterations 2
time step continuity errors : sum local = 0.000257157, global = -3.90994e-05, cumulative = -0.0021463
smoothSolver:  Solving for epsilon, Initial residual = 0.0282029, Final residual = 0.00186611, No Iterations 3
smoothSolver:  Solving for k, Initial residual = 0.0208892, Final residual = 0.00142059, No Iterations 3
ExecutionTime = 0.63 s  ClockTime = 1 s

Time = 72

smoothSolver:  Solving for Ux, Initial residual = 0.0129651, Final residual = 0.00127011, No Iterations 2
smoothSolver:  Solving for Uy, Initial residual = 0.00541732, Final residual = 0.000141031, No Iterations 2
smoothSolver:  Solving for Uz, Initial residual = 0.00542201, Final residual = 8.92263e-05, No Iterations 2
GAMG:  Solving for p, Initial residual = 0.0230928, Final residual = 0.000514172, No Iterations 2
time step continuity errors : sum local = 0.000263527, global = -2.08714e-05, cumulative = -0.00216717
smoothSolver:  Solving for epsilon, Initial residual = 0.0279692, Final residual = 0.00184346, No Iterations 3
smoothSolver:  Solving for k, Initial residual = 0.0208561, Final residual = 0.00141639, No Iterations 3
ExecutionTime = 0.63 s  ClockTime = 1 s

Time = 73

smoothSolver:  Solving for Ux, Initial residual = 0.0129255, Final residual = 0.00127683, No Iterations 2
smoothSolver:  Solving for Uy, Initial residual = 0.00539932, Final residual = 0.000139716, No Iterations 2
smoothSolver:  Solving for Uz, Initial residual = 0.00536694, Final residual = 8.88819e-05, No Iterations 2
GAMG:  Solving for p, Initial residual = 0.0227643, Final residual = 0.000474107, No Iterations 2
time step continuity errors : sum local = 0.000246213, global = -3.39272e-05, cumulative = -0.0022011
smoothSolver:  Solving for epsilon, Initial residual = 0.0277431, Final residual = 0.00182293, No Iterations 3
smoothSolver:  Solving for k, Initial residual = 0.0207482, Final residual = 0.00140017, No Iterations 3
ExecutionTime = 0.64 s  ClockTime = 1 s

Time = 74

smoothSolver:  Solving for Ux, Initial residual = 0.0129314, Final residual = 0.00128358, No Iterations 2
smoothSolver:  Solving for Uy, Initial residual = 0.00538144, Final residual = 0.000137953, No Iterations 2
smoothSolver:  Solving for Uz, Initial residual = 0.00530673, Final residual = 8.75727e-05, No Iterations 2
GAMG:  Solving for p, Initial residual = 0.0224973, Final residual = 0.000467988, No Iterations 2
time step continuity errors : sum local = 0.000246152, global = -1.99267e-05, cumulative = -0.00222103
smoothSolver:  Solving for epsilon, Initial residual = 0.0276014, Final residual = 0.00180411, No Iterations 3
smoothSolver:  Solving for k, Initial residual = 0.0206962, Final residual = 0.00139018, No Iterations 3
ExecutionTime = 0.64 s  ClockTime = 1 s

Time = 75

smoothSolver:  Solving for Ux, Initial residual = 0.0130592, Final residual = 0.00129388, No Iterations 2
smoothSolver:  Solving for Uy, Initial residual = 0.00536882, Final residual = 0.000136393, No Iterations 2
smoothSolver:  Solving for Uz, Initial residual = 0.00524869, Final residual = 8.56452e-05, No Iterations 2
GAMG:  Solving for p, Initial residual = 0.0227212, Final residual = 0.000445644, No Iterations 2
time step continuity errors : sum local = 0.000236971, global = -2.64833e-05, cumulative = -0.00224751
smoothSolver:  Solving for epsilon, Initial residual = 0.0274295, Final residual = 0.00178742, No Iterations 3
smoothSolver:  Solving for k, Initial residual = 0.0206113, Final residual = 0.00137706, No Iterations 3
ExecutionTime = 0.65 s  ClockTime = 1 s

Time = 76

smoothSolver:  Solving for Ux, Initial residual = 0.0132118, Final residual = 0.00129742, No Iterations 2
smoothSolver:  Solving for Uy, Initial residual = 0.00535371, Final residual = 0.000135001, No Iterations 2
smoothSolver:  Solving for Uz, Initial residual = 0.00519264, Final residual = 8.37219e-05, No Iterations 2
GAMG:  Solving for p, Initial residual = 0.0220804, Final residual = 0.000474495, No Iterations 2
time step continuity errors : sum local = 0.000254943, global = -3.85393e-05, cumulative = -0.00228605
smoothSolver:  Solving for epsilon, Initial residual = 0.0272088, Final residual = 0.00176163, No Iterations 3
smoothSolver:  Solving for k, Initial residual = 0.0205561, Final residual = 0.00136829, No Iterations 3
ExecutionTime = 0.66 s  ClockTime = 1 s

Time = 77

smoothSolver:  Solving for Ux, Initial residual = 0.0130341, Final residual = 0.00126625, No Iterations 2
smoothSolver:  Solving for Uy, Initial residual = 0.00535306, Final residual = 0.000133657, No Iterations 2
smoothSolver:  Solving for Uz, Initial residual = 0.00512827, Final residual = 8.18853e-05, No Iterations 2
GAMG:  Solving for p, Initial residual = 0.0218602, Final residual = 0.000454852, No Iterations 2
time step continuity errors : sum local = 0.000246464, global = -3.70808e-05, cumulative = -0.00232313
smoothSolver:  Solving for epsilon, Initial residual = 0.0270308, Final residual = 0.00174406, No Iterations 3
smoothSolver:  Solving for k, Initial residual = 0.0204656, Final residual = 0.00135511, No Iterations 3
ExecutionTime = 0.66 s  ClockTime = 1 s

Time = 78

smoothSolver:  Solving for Ux, Initial residual = 0.0130521, Final residual = 0.00125261, No Iterations 2
smoothSolver:  Solving for Uy, Initial residual = 0.00534972, Final residual = 0.000132215, No Iterations 2
smoothSolver:  Solving for Uz, Initial residual = 0.00507105, Final residual = 8.04253e-05, No Iterations 2
GAMG:  Solving for p, Initial residual = 0.0212306, Final residual = 0.000445527, No Iterations 2
time step continuity errors : sum local = 0.00024422, global = -3.33864e-05, cumulative = -0.00235652
smoothSolver:  Solving for epsilon, Initial residual = 0.0268605, Final residual = 0.00172638, No Iterations 3
smoothSolver:  Solving for k, Initial residual = 0.0204012, Final residual = 0.00134479, No Iterations 3
ExecutionTime = 0.67 s  ClockTime = 1 s

Time = 79

smoothSolver:  Solving for Ux, Initial residual = 0.0130213, Final residual = 0.00125024, No Iterations 2
smoothSolver:  Solving for Uy, Initial residual = 0.00534934, Final residual = 0.000131033, No Iterations 2
smoothSolver:  Solving for Uz, Initial residual = 0.00501516, Final residual = 7.82976e-05, No Iterations 2
GAMG:  Solving for p, Initial residual = 0.0211449, Final residual = 0.000440333, No Iterations 2
time step continuity errors : sum local = 0.000243762, global = -3.49756e-05, cumulative = -0.00239149
smoothSolver:  Solving for epsilon, Initial residual = 0.0266626, Final residual = 0.00170643, No Iterations 3
smoothSolver:  Solving for k, Initial residual = 0.0203227, Final residual = 0.00133196, No Iterations 3
ExecutionTime = 0.67 s  ClockTime = 1 s

Time = 80

smoothSolver:  Solving for Ux, Initial residual = 0.0129959, Final residual = 0.00124602, No Iterations 2
smoothSolver:  Solving for Uy, Initial residual = 0.00534082, Final residual = 0.000130332, No Iterations 2
smoothSolver:  Solving for Uz, Initial residual = 0.00495748, Final residual = 7.59203e-05, No Iterations 2
GAMG:  Solving for p, Initial residual = 0.0219595, Final residual = 0.00044145, No Iterations 2
time step continuity errors : sum local = 0.000247237, global = -3.44135e-05, cumulative = -0.00242591
smoothSolver:  Solving for epsilon, Initial residual = 0.0265139, Final residual = 0.00168821, No Iterations 3
smoothSolver:  Solving for k, Initial residual = 0.020253, Final residual = 0.0013195, No Iterations 3
ExecutionTime = 0.68 s  ClockTime = 1 s

Time = 81

smoothSolver:  Solving for Ux, Initial residual = 0.0131204, Final residual = 0.00125359, No Iterations 2
smoothSolver:  Solving for Uy, Initial residual = 0.00534, Final residual = 0.000129573, No Iterations 2
smoothSolver:  Solving for Uz, Initial residual = 0.00490564, Final residual = 7.46238e-05, No Iterations 2
GAMG:  Solving for p, Initial residual = 0.0214683, Final residual = 0.000439325, No Iterations 2
time step continuity errors : sum local = 0.000248719, global = -3.24556e-05, cumulative = -0.00245836
smoothSolver:  Solving for epsilon, Initial residual = 0.0264011, Final residual = 0.00167081, No Iterations 3
smoothSolver:  Solving for k, Initial residual = 0.0201797, Final residual = 0.00130946, No Iterations 3
ExecutionTime = 0.68 s  ClockTime = 1 s

Time = 82

smoothSolver:  Solving for Ux, Initial residual = 0.0132826, Final residual = 0.00125346, No Iterations 2
smoothSolver:  Solving for Uy, Initial residual = 0.00533914, Final residual = 0.000128847, No Iterations 2
smoothSolver:  Solving for Uz, Initial residual = 0.0048529, Final residual = 7.40512e-05, No Iterations 2
GAMG:  Solving for p, Initial residual = 0.0212271, Final residual = 0.000438702, No Iterations 2
time step continuity errors : sum local = 0.000250892, global = -2.68465e-05, cumulative = -0.00248521
smoothSolver:  Solving for epsilon, Initial residual = 0.0261617, Final residual = 0.00164778, No Iterations 3
smoothSolver:  Solving for k, Initial residual = 0.0201157, Final residual = 0.00129904, No Iterations 3
ExecutionTime = 0.69 s  ClockTime = 1 s

Time = 83

smoothSolver:  Solving for Ux, Initial residual = 0.0135187, Final residual = 0.00125952, No Iterations 2
smoothSolver:  Solving for Uy, Initial residual = 0.00534528, Final residual = 0.000128306, No Iterations 2
smoothSolver:  Solving for Uz, Initial residual = 0.00480638, Final residual = 7.4105e-05, No Iterations 2
GAMG:  Solving for p, Initial residual = 0.020804, Final residual = 0.000433028, No Iterations 2
time step continuity errors : sum local = 0.000250088, global = -1.97762e-05, cumulative = -0.00250498
smoothSolver:  Solving for epsilon, Initial residual = 0.0260286, Final residual = 0.00163208, No Iterations 3
smoothSolver:  Solving for k, Initial residual = 0.020031, Final residual = 0.00128396, No Iterations 3
ExecutionTime = 0.69 s  ClockTime = 1 s

Time = 84

smoothSolver:  Solving for Ux, Initial residual = 0.013698, Final residual = 0.00125799, No Iterations 2
smoothSolver:  Solving for Uy, Initial residual = 0.00535087, Final residual = 0.000127606, No Iterations 2
smoothSolver:  Solving for Uz, Initial residual = 0.00476487, Final residual = 7.30156e-05, No Iterations 2
GAMG:  Solving for p, Initial residual = 0.0199313, Final residual = 0.000461809, No Iterations 2
time step continuity errors : sum local = 0.000269409, global = -3.31303e-05, cumulative = -0.00253811
smoothSolver:  Solving for epsilon, Initial residual = 0.0258262, Final residual = 0.00161429, No Iterations 3
smoothSolver:  Solving for k, Initial residual = 0.0199366, Final residual = 0.00126995, No Iterations 3
ExecutionTime = 0.7 s  ClockTime = 1 s

Time = 85

smoothSolver:  Solving for Ux, Initial residual = 0.0133133, Final residual = 0.00122109, No Iterations 2
smoothSolver:  Solving for Uy, Initial residual = 0.00535803, Final residual = 0.000126836, No Iterations 2
smoothSolver:  Solving for Uz, Initial residual = 0.00470887, Final residual = 7.2006e-05, No Iterations 2
GAMG:  Solving for p, Initial residual = 0.0206788, Final residual = 0.000470715, No Iterations 2
time step continuity errors : sum local = 0.000276902, global = -3.52882e-05, cumulative = -0.0025734
smoothSolver:  Solving for epsilon, Initial residual = 0.0257113, Final residual = 0.00159795, No Iterations 3
smoothSolver:  Solving for k, Initial residual = 0.0198563, Final residual = 0.00125416, No Iterations 3
ExecutionTime = 0.7 s  ClockTime = 1 s

Time = 86

smoothSolver:  Solving for Ux, Initial residual = 0.0132583, Final residual = 0.00119409, No Iterations 2
smoothSolver:  Solving for Uy, Initial residual = 0.00536938, Final residual = 0.000126249, No Iterations 2
smoothSolver:  Solving for Uz, Initial residual = 0.00467175, Final residual = 6.97792e-05, No Iterations 2
GAMG:  Solving for p, Initial residual = 0.0206018, Final residual = 0.000439309, No Iterations 2
time step continuity errors : sum local = 0.000260748, global = -3.56625e-05, cumulative = -0.00260907
smoothSolver:  Solving for epsilon, Initial residual = 0.0254358, Final residual = 0.00157086, No Iterations 3
smoothSolver:  Solving for k, Initial residual = 0.0198086, Final residual = 0.001247, No Iterations 3
ExecutionTime = 0.71 s  ClockTime = 1 s

Time = 87

smoothSolver:  Solving for Ux, Initial residual = 0.0133898, Final residual = 0.00119792, No Iterations 2
smoothSolver:  Solving for Uy, Initial residual = 0.00537228, Final residual = 0.000125784, No Iterations 2
smoothSolver:  Solving for Uz, Initial residual = 0.00462882, Final residual = 6.9414e-05, No Iterations 2
GAMG:  Solving for p, Initial residual = 0.0199474, Final residual = 0.000440221, No Iterations 2
time step continuity errors : sum local = 0.000263501, global = -3.53771e-05, cumulative = -0.00264444
smoothSolver:  Solving for epsilon, Initial residual = 0.0253393, Final residual = 0.00155611, No Iterations 3
smoothSolver:  Solving for k, Initial residual = 0.019752, Final residual = 0.00123656, No Iterations 3
ExecutionTime = 0.71 s  ClockTime = 1 s

Time = 88

smoothSolver:  Solving for Ux, Initial residual = 0.0133519, Final residual = 0.00118467, No Iterations 2
smoothSolver:  Solving for Uy, Initial residual = 0.00538632, Final residual = 0.000125468, No Iterations 2
smoothSolver:  Solving for Uz, Initial residual = 0.00458585, Final residual = 6.80369e-05, No Iterations 2
GAMG:  Solving for p, Initial residual = 0.0197123, Final residual = 0.000402404, No Iterations 2
time step continuity errors : sum local = 0.000243245, global = -3.42178e-05, cumulative = -0.00267866
smoothSolver:  Solving for epsilon, Initial residual = 0.0251595, Final residual = 0.00153796, No Iterations 3
smoothSolver:  Solving for k, Initial residual = 0.0196683, Final residual = 0.00122392, No Iterations 3
ExecutionTime = 0.72 s  ClockTime = 1 s

Time = 89

smoothSolver:  Solving for Ux, Initial residual = 0.0132948, Final residual = 0.00118457, No Iterations 2
smoothSolver:  Solving for Uy, Initial residual = 0.0053943, Final residual = 0.000125119, No Iterations 2
smoothSolver:  Solving for Uz, Initial residual = 0.00453215, Final residual = 6.70378e-05, No Iterations 2
GAMG:  Solving for p, Initial residual = 0.0190221, Final residual = 0.000378451, No Iterations 2
time step continuity errors : sum local = 0.000230773, global = -3.35125e-05, cumulative = -0.00271217
smoothSolver:  Solving for epsilon, Initial residual = 0.0249758, Final residual = 0.00151939, No Iterations 3
smoothSolver:  Solving for k, Initial residual = 0.019612, Final residual = 0.00121241, No Iterations 3
ExecutionTime = 0.72 s  ClockTime = 1 s

Time = 90

smoothSolver:  Solving for Ux, Initial residual = 0.0133947, Final residual = 0.00118396, No Iterations 2
smoothSolver:  Solving for Uy, Initial residual = 0.00540985, Final residual = 0.000124988, No Iterations 2
smoothSolver:  Solving for Uz, Initial residual = 0.00448731, Final residual = 6.61074e-05, No Iterations 2
GAMG:  Solving for p, Initial residual = 0.0190098, Final residual = 0.000405072, No Iterations 2
time step continuity errors : sum local = 0.000249482, global = -3.73817e-05, cumulative = -0.00274955
smoothSolver:  Solving for epsilon, Initial residual = 0.0248531, Final residual = 0.00150247, No Iterations 3
smoothSolver:  Solving for k, Initial residual = 0.0195469, Final residual = 0.00120022, No Iterations 3
ExecutionTime = 0.73 s  ClockTime = 1 s

Time = 91

smoothSolver:  Solving for Ux, Initial residual = 0.0134797, Final residual = 0.00117783, No Iterations 2
smoothSolver:  Solving for Uy, Initial residual = 0.00541826, Final residual = 0.00012476, No Iterations 2
smoothSolver:  Solving for Uz, Initial residual = 0.00442945, Final residual = 6.51973e-05, No Iterations 2
GAMG:  Solving for p, Initial residual = 0.0186516, Final residual = 0.00040984, No Iterations 2
time step continuity errors : sum local = 0.000254584, global = -3.30612e-05, cumulative = -0.00278262
smoothSolver:  Solving for epsilon, Initial residual = 0.0247031, Final residual = 0.001482, No Iterations 3
smoothSolver:  Solving for k, Initial residual = 0.0194889, Final residual = 0.00119234, No Iterations 3
ExecutionTime = 0.73 s  ClockTime = 1 s

Time = 92

smoothSolver:  Solving for Ux, Initial residual = 0.0136744, Final residual = 0.00117131, No Iterations 2
smoothSolver:  Solving for Uy, Initial residual = 0.00543359, Final residual = 0.00012475, No Iterations 2
smoothSolver:  Solving for Uz, Initial residual = 0.00439257, Final residual = 6.45786e-05, No Iterations 2
GAMG:  Solving for p, Initial residual = 0.0188548, Final residual = 0.000409119, No Iterations 2
time step continuity errors : sum local = 0.000256549, global = -2.56751e-05, cumulative = -0.00280829
smoothSolver:  Solving for epsilon, Initial residual = 0.0244985, Final residual = 0.00146135, No Iterations 3
smoothSolver:  Solving for k, Initial residual = 0.01943, Final residual = 0.00118241, No Iterations 3
ExecutionTime = 0.74 s  ClockTime = 1 s

Time = 93

smoothSolver:  Solving for Ux, Initial residual = 0.0138478, Final residual = 0.00116727, No Iterations 2
smoothSolver:  Solving for Uy, Initial residual = 0.00544983, Final residual = 0.00012483, No Iterations 2
smoothSolver:  Solving for Uz, Initial residual = 0.00435011, Final residual = 6.39214e-05, No Iterations 2
GAMG:  Solving for p, Initial residual = 0.0191779, Final residual = 0.000417796, No Iterations 2
time step continuity errors : sum local = 0.000264136, global = -1.74217e-05, cumulative = -0.00282571
smoothSolver:  Solving for epsilon, Initial residual = 0.0244091, Final residual = 0.00145203, No Iterations 3
smoothSolver:  Solving for k, Initial residual = 0.0193808, Final residual = 0.00116999, No Iterations 3
ExecutionTime = 0.74 s  ClockTime = 1 s

Time = 94

smoothSolver:  Solving for Ux, Initial residual = 0.0140501, Final residual = 0.00115999, No Iterations 2
smoothSolver:  Solving for Uy, Initial residual = 0.00547059, Final residual = 0.000124648, No Iterations 2
smoothSolver:  Solving for Uz, Initial residual = 0.00431491, Final residual = 6.30558e-05, No Iterations 2
GAMG:  Solving for p, Initial residual = 0.0189983, Final residual = 0.000413953, No Iterations 2
time step continuity errors : sum local = 0.000264122, global = -2.83201e-05, cumulative = -0.00285403
smoothSolver:  Solving for epsilon, Initial residual = 0.0242244, Final residual = 0.0014344, No Iterations 3
smoothSolver:  Solving for k, Initial residual = 0.0193115, Final residual = 0.00115807, No Iterations 3
ExecutionTime = 0.75 s  ClockTime = 1 s

Time = 95

smoothSolver:  Solving for Ux, Initial residual = 0.0138289, Final residual = 0.00113839, No Iterations 2
smoothSolver:  Solving for Uy, Initial residual = 0.00548935, Final residual = 0.000124791, No Iterations 2
smoothSolver:  Solving for Uz, Initial residual = 0.00427137, Final residual = 6.25575e-05, No Iterations 2
GAMG:  Solving for p, Initial residual = 0.0191122, Final residual = 0.000415522, No Iterations 2
time step continuity errors : sum local = 0.00026719, global = -1.51489e-05, cumulative = -0.00286918
smoothSolver:  Solving for epsilon, Initial residual = 0.0241172, Final residual = 0.00141803, No Iterations 3
smoothSolver:  Solving for k, Initial residual = 0.019206, Final residual = 0.00114546, No Iterations 3
ExecutionTime = 0.75 s  ClockTime = 1 s

Time = 96

smoothSolver:  Solving for Ux, Initial residual = 0.0138724, Final residual = 0.0011268, No Iterations 2
smoothSolver:  Solving for Uy, Initial residual = 0.00551197, Final residual = 0.000124255, No Iterations 2
smoothSolver:  Solving for Uz, Initial residual = 0.00424456, Final residual = 6.1532e-05, No Iterations 2
GAMG:  Solving for p, Initial residual = 0.0184466, Final residual = 0.000419622, No Iterations 2
time step continuity errors : sum local = 0.000272193, global = -2.57888e-05, cumulative = -0.00289497
smoothSolver:  Solving for epsilon, Initial residual = 0.0239579, Final residual = 0.00139927, No Iterations 3
smoothSolver:  Solving for k, Initial residual = 0.0191289, Final residual = 0.00113331, No Iterations 3
ExecutionTime = 0.76 s  ClockTime = 1 s

Time = 97

smoothSolver:  Solving for Ux, Initial residual = 0.0137782, Final residual = 0.00111263, No Iterations 2
smoothSolver:  Solving for Uy, Initial residual = 0.00553378, Final residual = 0.000124355, No Iterations 2
smoothSolver:  Solving for Uz, Initial residual = 0.00418663, Final residual = 6.07461e-05, No Iterations 2
GAMG:  Solving for p, Initial residual = 0.0181827, Final residual = 0.000408371, No Iterations 2
time step continuity errors : sum local = 0.000266872, global = -1.37631e-05, cumulative = -0.00290873
smoothSolver:  Solving for epsilon, Initial residual = 0.0238515, Final residual = 0.00138682, No Iterations 3
smoothSolver:  Solving for k, Initial residual = 0.0190501, Final residual = 0.00111521, No Iterations 3
ExecutionTime = 0.76 s  ClockTime = 1 s

Time = 98

smoothSolver:  Solving for Ux, Initial residual = 0.0137977, Final residual = 0.00110574, No Iterations 2
smoothSolver:  Solving for Uy, Initial residual = 0.00555075, Final residual = 0.000123695, No Iterations 2
smoothSolver:  Solving for Uz, Initial residual = 0.00415028, Final residual = 5.94898e-05, No Iterations 2
GAMG:  Solving for p, Initial residual = 0.0178846, Final residual = 0.00040041, No Iterations 2
time step continuity errors : sum local = 0.000263867, global = -1.8531e-05, cumulative = -0.00292726
smoothSolver:  Solving for epsilon, Initial residual = 0.0236668, Final residual = 0.00136681, No Iterations 3
[...]
smoothSolver:  Solving for Uy, Initial residual = 0.000338296, Final residual = 5.37596e-06, No Iterations 2
smoothSolver:  Solving for Uz, Initial residual = 0.000131274, Final residual = 1.9459e-06, No Iterations 2
GAMG:  Solving for p, Initial residual = 0.0018283, Final residual = 5.57004e-05, No Iterations 3
time step continuity errors : sum local = 4.96538e-05, global = 1.63871e-06, cumulative = -0.00244313
smoothSolver:  Solving for epsilon, Initial residual = 0.000635818, Final residual = 2.02248e-05, No Iterations 2
smoothSolver:  Solving for k, Initial residual = 0.00298299, Final residual = 0.000110435, No Iterations 2
ExecutionTime = 1.53 s  ClockTime = 2 s

Time = 216

smoothSolver:  Solving for Ux, Initial residual = 0.00207015, Final residual = 5.77214e-05, No Iterations 2
smoothSolver:  Solving for Uy, Initial residual = 0.000336484, Final residual = 5.03406e-06, No Iterations 2
smoothSolver:  Solving for Uz, Initial residual = 0.000121072, Final residual = 1.91846e-06, No Iterations 2
GAMG:  Solving for p, Initial residual = 0.00194687, Final residual = 5.63997e-05, No Iterations 3
time step continuity errors : sum local = 5.02972e-05, global = 1.32011e-06, cumulative = -0.00244181
smoothSolver:  Solving for epsilon, Initial residual = 0.00059417, Final residual = 1.72549e-05, No Iterations 2
smoothSolver:  Solving for k, Initial residual = 0.00280168, Final residual = 0.000101105, No Iterations 2
ExecutionTime = 1.54 s  ClockTime = 2 s

Time = 217

smoothSolver:  Solving for Ux, Initial residual = 0.00197528, Final residual = 5.47027e-05, No Iterations 2
smoothSolver:  Solving for Uy, Initial residual = 0.000317194, Final residual = 4.9051e-06, No Iterations 2
smoothSolver:  Solving for Uz, Initial residual = 0.00011968, Final residual = 1.86852e-06, No Iterations 2
GAMG:  Solving for p, Initial residual = 0.00163559, Final residual = 5.3692e-05, No Iterations 3
time step continuity errors : sum local = 4.78781e-05, global = 2.43875e-06, cumulative = -0.00243937
smoothSolver:  Solving for epsilon, Initial residual = 0.000552716, Final residual = 1.62546e-05, No Iterations 2
smoothSolver:  Solving for k, Initial residual = 0.00260192, Final residual = 9.23988e-05, No Iterations 2
ExecutionTime = 1.55 s  ClockTime = 2 s

Time = 218

smoothSolver:  Solving for Ux, Initial residual = 0.00193518, Final residual = 5.42963e-05, No Iterations 2
smoothSolver:  Solving for Uy, Initial residual = 0.000308813, Final residual = 4.90622e-06, No Iterations 2
smoothSolver:  Solving for Uz, Initial residual = 0.000106014, Final residual = 1.64157e-06, No Iterations 2
GAMG:  Solving for p, Initial residual = 0.00189669, Final residual = 9.02588e-05, No Iterations 2
time step continuity errors : sum local = 8.05327e-05, global = 7.78354e-06, cumulative = -0.00243159
smoothSolver:  Solving for epsilon, Initial residual = 0.000513011, Final residual = 1.61861e-05, No Iterations 2
smoothSolver:  Solving for k, Initial residual = 0.00243852, Final residual = 7.83126e-05, No Iterations 2
ExecutionTime = 1.56 s  ClockTime = 2 s

Time = 219

smoothSolver:  Solving for Ux, Initial residual = 0.00185359, Final residual = 5.15489e-05, No Iterations 2
smoothSolver:  Solving for Uy, Initial residual = 0.000289855, Final residual = 4.74162e-06, No Iterations 2
smoothSolver:  Solving for Uz, Initial residual = 0.00011526, Final residual = 1.81847e-06, No Iterations 2
GAMG:  Solving for p, Initial residual = 0.00172902, Final residual = 5.08266e-05, No Iterations 3
time step continuity errors : sum local = 4.53309e-05, global = 1.19632e-06, cumulative = -0.00243039
smoothSolver:  Solving for epsilon, Initial residual = 0.000481923, Final residual = 1.62355e-05, No Iterations 2
smoothSolver:  Solving for k, Initial residual = 0.00227365, Final residual = 7.22394e-05, No Iterations 2
ExecutionTime = 1.57 s  ClockTime = 2 s

Time = 220

smoothSolver:  Solving for Ux, Initial residual = 0.00181406, Final residual = 4.94432e-05, No Iterations 2
smoothSolver:  Solving for Uy, Initial residual = 0.000290126, Final residual = 4.42834e-06, No Iterations 2
smoothSolver:  Solving for Uz, Initial residual = 0.000105544, Final residual = 1.77987e-06, No Iterations 2
GAMG:  Solving for p, Initial residual = 0.00184541, Final residual = 9.16273e-05, No Iterations 2
time step continuity errors : sum local = 8.17509e-05, global = 8.41347e-06, cumulative = -0.00242198
smoothSolver:  Solving for epsilon, Initial residual = 0.000450063, Final residual = 1.38585e-05, No Iterations 2
smoothSolver:  Solving for k, Initial residual = 0.00211651, Final residual = 7.15984e-05, No Iterations 2
ExecutionTime = 1.58 s  ClockTime = 2 s

Time = 221

smoothSolver:  Solving for Ux, Initial residual = 0.0017217, Final residual = 4.66066e-05, No Iterations 2
smoothSolver:  Solving for Uy, Initial residual = 0.000271772, Final residual = 4.28303e-06, No Iterations 2
smoothSolver:  Solving for Uz, Initial residual = 0.000105828, Final residual = 1.755e-06, No Iterations 2
GAMG:  Solving for p, Initial residual = 0.00155996, Final residual = 5.45129e-05, No Iterations 3
time step continuity errors : sum local = 4.86317e-05, global = 2.19675e-06, cumulative = -0.00241978
smoothSolver:  Solving for epsilon, Initial residual = 0.000420169, Final residual = 1.13669e-05, No Iterations 2
smoothSolver:  Solving for k, Initial residual = 0.00194643, Final residual = 6.51978e-05, No Iterations 2
ExecutionTime = 1.59 s  ClockTime = 2 s

Time = 222

smoothSolver:  Solving for Ux, Initial residual = 0.00168235, Final residual = 4.64833e-05, No Iterations 2
smoothSolver:  Solving for Uy, Initial residual = 0.000267246, Final residual = 4.32071e-06, No Iterations 2
smoothSolver:  Solving for Uz, Initial residual = 9.32765e-05, Final residual = 1.53011e-06, No Iterations 2
GAMG:  Solving for p, Initial residual = 0.00183455, Final residual = 8.61598e-05, No Iterations 2
time step continuity errors : sum local = 7.69104e-05, global = 8.54984e-06, cumulative = -0.00241123
smoothSolver:  Solving for epsilon, Initial residual = 0.000390798, Final residual = 1.13045e-05, No Iterations 2
smoothSolver:  Solving for k, Initial residual = 0.00180369, Final residual = 5.90389e-05, No Iterations 2
ExecutionTime = 1.6 s  ClockTime = 2 s

Time = 223

smoothSolver:  Solving for Ux, Initial residual = 0.00159297, Final residual = 4.38295e-05, No Iterations 2
smoothSolver:  Solving for Uy, Initial residual = 0.000250674, Final residual = 4.16812e-06, No Iterations 2
smoothSolver:  Solving for Uz, Initial residual = 0.000103635, Final residual = 1.6959e-06, No Iterations 2
GAMG:  Solving for p, Initial residual = 0.00166464, Final residual = 5.05726e-05, No Iterations 3
time step continuity errors : sum local = 4.51239e-05, global = 1.06059e-06, cumulative = -0.00241017
smoothSolver:  Solving for epsilon, Initial residual = 0.000366202, Final residual = 1.11009e-05, No Iterations 2
smoothSolver:  Solving for k, Initial residual = 0.00165268, Final residual = 5.12108e-05, No Iterations 2
ExecutionTime = 1.62 s  ClockTime = 2 s

Time = 224

smoothSolver:  Solving for Ux, Initial residual = 0.00155192, Final residual = 4.19888e-05, No Iterations 2
smoothSolver:  Solving for Uy, Initial residual = 0.000253152, Final residual = 3.88706e-06, No Iterations 2
smoothSolver:  Solving for Uz, Initial residual = 9.42836e-05, Final residual = 1.64878e-06, No Iterations 2
GAMG:  Solving for p, Initial residual = 0.00178578, Final residual = 8.50931e-05, No Iterations 2
time step continuity errors : sum local = 7.59533e-05, global = 8.22631e-06, cumulative = -0.00240194
smoothSolver:  Solving for epsilon, Initial residual = 0.000340712, Final residual = 1.05776e-05, No Iterations 2
smoothSolver:  Solving for k, Initial residual = 0.00154109, Final residual = 4.6239e-05, No Iterations 2
ExecutionTime = 1.63 s  ClockTime = 2 s

Time = 225

smoothSolver:  Solving for Ux, Initial residual = 0.00146754, Final residual = 3.92492e-05, No Iterations 2
smoothSolver:  Solving for Uy, Initial residual = 0.000237544, Final residual = 3.77518e-06, No Iterations 2
smoothSolver:  Solving for Uz, Initial residual = 9.48725e-05, Final residual = 1.62081e-06, No Iterations 2
GAMG:  Solving for p, Initial residual = 0.00148717, Final residual = 5.02516e-05, No Iterations 3
time step continuity errors : sum local = 4.48479e-05, global = 2.08709e-06, cumulative = -0.00239986
smoothSolver:  Solving for epsilon, Initial residual = 0.000312581, Final residual = 9.08394e-06, No Iterations 2
smoothSolver:  Solving for k, Initial residual = 0.00140258, Final residual = 4.18181e-05, No Iterations 2
ExecutionTime = 1.64 s  ClockTime = 2 s

Time = 226

smoothSolver:  Solving for Ux, Initial residual = 0.00145082, Final residual = 3.99239e-05, No Iterations 2
smoothSolver:  Solving for Uy, Initial residual = 0.000235315, Final residual = 3.84511e-06, No Iterations 2
smoothSolver:  Solving for Uz, Initial residual = 8.27709e-05, Final residual = 9.11769e-06, No Iterations 1
GAMG:  Solving for p, Initial residual = 0.00177528, Final residual = 7.58967e-05, No Iterations 2
time step continuity errors : sum local = 6.77756e-05, global = 7.16967e-06, cumulative = -0.00239269
smoothSolver:  Solving for epsilon, Initial residual = 0.000288432, Final residual = 7.69872e-06, No Iterations 2
smoothSolver:  Solving for k, Initial residual = 0.00129177, Final residual = 3.62915e-05, No Iterations 2
ExecutionTime = 1.65 s  ClockTime = 2 s

Time = 227

smoothSolver:  Solving for Ux, Initial residual = 0.00138496, Final residual = 3.78025e-05, No Iterations 2
smoothSolver:  Solving for Uy, Initial residual = 0.000221251, Final residual = 3.74282e-06, No Iterations 2
smoothSolver:  Solving for Uz, Initial residual = 9.3538e-05, Final residual = 1.56751e-06, No Iterations 2
GAMG:  Solving for p, Initial residual = 0.00160351, Final residual = 7.2761e-05, No Iterations 2
time step continuity errors : sum local = 6.49453e-05, global = 6.22437e-06, cumulative = -0.00238646
smoothSolver:  Solving for epsilon, Initial residual = 0.000267155, Final residual = 7.38815e-06, No Iterations 2
smoothSolver:  Solving for k, Initial residual = 0.00118139, Final residual = 3.60962e-05, No Iterations 2
ExecutionTime = 1.66 s  ClockTime = 2 s

Time = 228

smoothSolver:  Solving for Ux, Initial residual = 0.00134989, Final residual = 3.6133e-05, No Iterations 2
smoothSolver:  Solving for Uy, Initial residual = 0.000224458, Final residual = 3.46367e-06, No Iterations 2
smoothSolver:  Solving for Uz, Initial residual = 8.60119e-05, Final residual = 9.83224e-06, No Iterations 1
GAMG:  Solving for p, Initial residual = 0.00174831, Final residual = 8.23184e-05, No Iterations 2
time step continuity errors : sum local = 7.35033e-05, global = 7.6441e-06, cumulative = -0.00237882
smoothSolver:  Solving for epsilon, Initial residual = 0.000247705, Final residual = 7.03983e-06, No Iterations 2
smoothSolver:  Solving for k, Initial residual = 0.00109006, Final residual = 3.29905e-05, No Iterations 2
ExecutionTime = 1.67 s  ClockTime = 2 s

Time = 229

smoothSolver:  Solving for Ux, Initial residual = 0.00127901, Final residual = 3.4109e-05, No Iterations 2
smoothSolver:  Solving for Uy, Initial residual = 0.000211718, Final residual = 3.38524e-06, No Iterations 2
smoothSolver:  Solving for Uz, Initial residual = 8.75917e-05, Final residual = 9.64847e-06, No Iterations 1
GAMG:  Solving for p, Initial residual = 0.00142096, Final residual = 5.24232e-05, No Iterations 3
time step continuity errors : sum local = 4.68023e-05, global = -5.95716e-07, cumulative = -0.00237942
smoothSolver:  Solving for epsilon, Initial residual = 0.000227475, Final residual = 6.23257e-06, No Iterations 2
smoothSolver:  Solving for k, Initial residual = 0.000970132, Final residual = 3.17822e-05, No Iterations 2
ExecutionTime = 1.68 s  ClockTime = 2 s

Time = 230

smoothSolver:  Solving for Ux, Initial residual = 0.00127271, Final residual = 3.47991e-05, No Iterations 2
smoothSolver:  Solving for Uy, Initial residual = 0.000210726, Final residual = 3.50428e-06, No Iterations 2
smoothSolver:  Solving for Uz, Initial residual = 7.56142e-05, Final residual = 8.28372e-06, No Iterations 1
GAMG:  Solving for p, Initial residual = 0.00170374, Final residual = 7.25615e-05, No Iterations 2
time step continuity errors : sum local = 6.48189e-05, global = 6.3618e-06, cumulative = -0.00237305
smoothSolver:  Solving for epsilon, Initial residual = 0.000209532, Final residual = 5.84572e-06, No Iterations 2
smoothSolver:  Solving for k, Initial residual = 0.000875776, Final residual = 2.87183e-05, No Iterations 2
ExecutionTime = 1.69 s  ClockTime = 2 s

Time = 231

smoothSolver:  Solving for Ux, Initial residual = 0.00121958, Final residual = 3.32936e-05, No Iterations 2
smoothSolver:  Solving for Uy, Initial residual = 0.000199144, Final residual = 3.44615e-06, No Iterations 2
smoothSolver:  Solving for Uz, Initial residual = 8.59032e-05, Final residual = 9.42341e-06, No Iterations 1
GAMG:  Solving for p, Initial residual = 0.00157028, Final residual = 6.77359e-05, No Iterations 2
time step continuity errors : sum local = 6.04804e-05, global = 5.67687e-06, cumulative = -0.00236738
smoothSolver:  Solving for epsilon, Initial residual = 0.00019559, Final residual = 5.38821e-06, No Iterations 2
smoothSolver:  Solving for k, Initial residual = 0.00078435, Final residual = 2.19716e-05, No Iterations 2
ExecutionTime = 1.7 s  ClockTime = 2 s

Time = 232

smoothSolver:  Solving for Ux, Initial residual = 0.00118879, Final residual = 3.17759e-05, No Iterations 2
smoothSolver:  Solving for Uy, Initial residual = 0.000205346, Final residual = 3.20644e-06, No Iterations 2
smoothSolver:  Solving for Uz, Initial residual = 7.96013e-05, Final residual = 9.10723e-06, No Iterations 1
GAMG:  Solving for p, Initial residual = 0.00170104, Final residual = 7.6406e-05, No Iterations 2
time step continuity errors : sum local = 6.82467e-05, global = 7.44891e-06, cumulative = -0.00235993
smoothSolver:  Solving for epsilon, Initial residual = 0.000183288, Final residual = 4.72933e-06, No Iterations 2
smoothSolver:  Solving for k, Initial residual = 0.000713273, Final residual = 2.06203e-05, No Iterations 2
ExecutionTime = 1.71 s  ClockTime = 2 s

Time = 233

smoothSolver:  Solving for Ux, Initial residual = 0.00112664, Final residual = 2.9935e-05, No Iterations 2
smoothSolver:  Solving for Uy, Initial residual = 0.000194435, Final residual = 3.15349e-06, No Iterations 2
smoothSolver:  Solving for Uz, Initial residual = 8.22185e-05, Final residual = 9.10244e-06, No Iterations 1
GAMG:  Solving for p, Initial residual = 0.00142317, Final residual = 4.91383e-05, No Iterations 3
time step continuity errors : sum local = 4.3885e-05, global = 1.5087e-06, cumulative = -0.00235842
smoothSolver:  Solving for epsilon, Initial residual = 0.00016856, Final residual = 4.25703e-06, No Iterations 2
smoothSolver:  Solving for k, Initial residual = 0.000630893, Final residual = 1.76792e-05, No Iterations 2
ExecutionTime = 1.72 s  ClockTime = 2 s

Time = 234

smoothSolver:  Solving for Ux, Initial residual = 0.00113519, Final residual = 3.12653e-05, No Iterations 2
smoothSolver:  Solving for Uy, Initial residual = 0.000195881, Final residual = 3.28809e-06, No Iterations 2
smoothSolver:  Solving for Uz, Initial residual = 7.16895e-05, Final residual = 7.88341e-06, No Iterations 1
GAMG:  Solving for p, Initial residual = 0.001671, Final residual = 6.9362e-05, No Iterations 2
time step continuity errors : sum local = 6.19789e-05, global = 6.02043e-06, cumulative = -0.0023524
smoothSolver:  Solving for epsilon, Initial residual = 0.000157292, Final residual = 4.01232e-06, No Iterations 2
smoothSolver:  Solving for k, Initial residual = 0.000577346, Final residual = 1.70577e-05, No Iterations 2
ExecutionTime = 1.73 s  ClockTime = 2 s

Time = 235

smoothSolver:  Solving for Ux, Initial residual = 0.00108687, Final residual = 2.98288e-05, No Iterations 2
smoothSolver:  Solving for Uy, Initial residual = 0.000184942, Final residual = 3.24039e-06, No Iterations 2
smoothSolver:  Solving for Uz, Initial residual = 8.16117e-05, Final residual = 9.01505e-06, No Iterations 1
GAMG:  Solving for p, Initial residual = 0.00155766, Final residual = 6.76867e-05, No Iterations 2
time step continuity errors : sum local = 6.0456e-05, global = 5.36286e-06, cumulative = -0.00234704
smoothSolver:  Solving for epsilon, Initial residual = 0.000149866, Final residual = 3.7922e-06, No Iterations 2
smoothSolver:  Solving for k, Initial residual = 0.00051359, Final residual = 1.58993e-05, No Iterations 2
ExecutionTime = 1.74 s  ClockTime = 2 s

Time = 236

smoothSolver:  Solving for Ux, Initial residual = 0.00107232, Final residual = 2.87925e-05, No Iterations 2
smoothSolver:  Solving for Uy, Initial residual = 0.000193383, Final residual = 3.01686e-06, No Iterations 2
smoothSolver:  Solving for Uz, Initial residual = 7.62969e-05, Final residual = 8.8276e-06, No Iterations 1
GAMG:  Solving for p, Initial residual = 0.00169385, Final residual = 7.80753e-05, No Iterations 2
time step continuity errors : sum local = 6.97592e-05, global = 6.60347e-06, cumulative = -0.00234043
smoothSolver:  Solving for epsilon, Initial residual = 0.000142845, Final residual = 3.88023e-06, No Iterations 2
smoothSolver:  Solving for k, Initial residual = 0.000480919, Final residual = 1.37674e-05, No Iterations 2
ExecutionTime = 1.74 s  ClockTime = 2 s

Time = 237

smoothSolver:  Solving for Ux, Initial residual = 0.00101966, Final residual = 2.72698e-05, No Iterations 2
smoothSolver:  Solving for Uy, Initial residual = 0.000182359, Final residual = 2.97663e-06, No Iterations 2
smoothSolver:  Solving for Uz, Initial residual = 7.90267e-05, Final residual = 8.81725e-06, No Iterations 1
GAMG:  Solving for p, Initial residual = 0.00140367, Final residual = 4.42149e-05, No Iterations 3
time step continuity errors : sum local = 3.94993e-05, global = 9.19754e-07, cumulative = -0.00233951
smoothSolver:  Solving for epsilon, Initial residual = 0.000135165, Final residual = 3.58442e-06, No Iterations 2
smoothSolver:  Solving for k, Initial residual = 0.000435899, Final residual = 1.25439e-05, No Iterations 2
ExecutionTime = 1.76 s  ClockTime = 2 s

Time = 238

smoothSolver:  Solving for Ux, Initial residual = 0.00103187, Final residual = 2.85097e-05, No Iterations 2
smoothSolver:  Solving for Uy, Initial residual = 0.000184113, Final residual = 3.11689e-06, No Iterations 2
smoothSolver:  Solving for Uz, Initial residual = 6.82751e-05, Final residual = 7.61148e-06, No Iterations 1
GAMG:  Solving for p, Initial residual = 0.00162452, Final residual = 6.25909e-05, No Iterations 2
time step continuity errors : sum local = 5.5942e-05, global = 5.34495e-06, cumulative = -0.00233417
smoothSolver:  Solving for epsilon, Initial residual = 0.00012858, Final residual = 3.52344e-06, No Iterations 2
smoothSolver:  Solving for k, Initial residual = 0.000412065, Final residual = 1.27137e-05, No Iterations 2
ExecutionTime = 1.76 s  ClockTime = 2 s

Time = 239

smoothSolver:  Solving for Ux, Initial residual = 0.000991482, Final residual = 2.74422e-05, No Iterations 2
smoothSolver:  Solving for Uy, Initial residual = 0.000172814, Final residual = 3.07305e-06, No Iterations 2
smoothSolver:  Solving for Uz, Initial residual = 7.79401e-05, Final residual = 8.75199e-06, No Iterations 1
GAMG:  Solving for p, Initial residual = 0.00150684, Final residual = 6.00204e-05, No Iterations 2
time step continuity errors : sum local = 5.36208e-05, global = 4.39303e-06, cumulative = -0.00232977
smoothSolver:  Solving for epsilon, Initial residual = 0.000124813, Final residual = 3.34754e-06, No Iterations 2
smoothSolver:  Solving for k, Initial residual = 0.000387638, Final residual = 1.17305e-05, No Iterations 2
ExecutionTime = 1.77 s  ClockTime = 2 s


SIMPLE solution converged in 239 iterations

End

Finalising parallel run
