/*---------------------------------------------------------------------------*\
| =========                 |                                                 |
| \\      /  F ield         | OpenFOAM: The Open Source CFD Toolbox           |
|  \\    /   O peration     | Version:  4.1                                   |
|   \\  /    A nd           | Web:      www.OpenFOAM.org                      |
|    \\/     M anipulation  |                                                 |
\*---------------------------------------------------------------------------*/
Build  : 4.1
Exec   : writeCellCentres -time 0
Date   : Jan 31 2020
Time   : 10:27:34
Host   : "cfdclu55.ugent.be"
PID    : 16394
Case   : /cfdfile2/data/fm/laurent/git-repository/Kratos/applications/CoSimulationApplication/tests/solver_wrappers/openfoam/test_41_pipeCyclic
nProcs : 1
sigFpe : Enabling floating point exception trapping (FOAM_SIGFPE).
fileModificationChecking : Monitoring run-time modified files using timeStampMaster
allowSystemOperations : Allowing user-supplied system call operations

// * * * * * * * * * * * * * * * * * * * * * * * * * * * * * * * * * * * * * //
Create time

Create mesh for time = 0

Time = 0
Writing components of cellCentre positions to volScalarFields ccx, ccy, ccz in 0
Writing cellVolumes and patch faceAreas to V in 0

End

