/*---------------------------------------------------------------------------*\
| =========                 |                                                 |
| \\      /  F ield         | OpenFOAM: The Open Source CFD Toolbox           |
|  \\    /   O peration     | Version:  4.1                                   |
|   \\  /    A nd           | Web:      www.OpenFOAM.org                      |
|    \\/     M anipulation  |                                                 |
\*---------------------------------------------------------------------------*/
Build  : 4.1
Exec   : CoCoNuT_pimpleFoam
Date   : Jan 10 2020
Time   : 14:30:23
Host   : "cfdclu55.ugent.be"
PID    : 182083
Case   : /cfdfile2/data/fm/laurent/git-repository/Kratos/applications/CoSimulationApplication/tests/solver_wrappers/openfoam/test_41_pipeCyclic
nProcs : 1
sigFpe : Enabling floating point exception trapping (FOAM_SIGFPE).
fileModificationChecking : Monitoring run-time modified files using timeStampMaster
allowSystemOperations : Allowing user-supplied system call operations

// * * * * * * * * * * * * * * * * * * * * * * * * * * * * * * * * * * * * * //
Create time

Create mesh for time = 0

Selecting dynamicFvMesh dynamicMotionSolverFvMesh
Selecting motion solver: displacementLaplacian
Selecting motion diffusion: quadratic
Selecting motion diffusion: inverseDistance
AMI: Creating addressing and weights between 400 source faces and 250 target faces
AMI: Patch source sum(weights) min/max/average = 1, 1, 1
AMI: Patch target sum(weights) min/max/average = 1, 1, 1

PIMPLE: no residual control data found. Calculations will employ 4 corrector loops

Reading field p

Reading field U

Using dynamicCode for patch inlet on field U at line 26 in "/cfdfile2/data/fm/laurent/git-repository/Kratos/applications/CoSimulationApplication/tests/solver_wrappers/openfoam/test_41_pipeCyclic/0/U.boundaryField.inlet"
Reading field pointDisplacement



--> FOAM FATAL IO ERROR: 
unexpected class name pointVectorField expected volVectorField
    while reading object pointDisplacement

file: /cfdfile2/data/fm/laurent/git-repository/Kratos/applications/CoSimulationApplication/tests/solver_wrappers/openfoam/test_41_pipeCyclic/0/pointDisplacement at line 15.

    From function Foam::Istream &Foam::regIOobject::readStream(const Foam::word &)
    in file db/regIOobject/regIOobjectRead.C at line 135.

FOAM exiting

