*Heading
 Beam
** Job name: Base Model name: Model-1
** Generated by: Abaqus/CAE 6.14-1
*Preprint, echo=NO, model=NO, history=NO, contact=NO
**
** PARTS
**
*Part, name=PART-1
*Node
      1, -0.00499999989, 0.0815000013
      2, -0.00499999989, 0.00249999994
      3,           0., 0.00249999994
      4,           0., 0.0815000013
      5, -0.00499999989, 0.0775500014
      6, -0.00499999989, 0.0736000016
      7, -0.00499999989, 0.0696500018
      8, -0.00499999989,  0.065700002
      9, -0.00499999989, 0.0617499985
     10, -0.00499999989, 0.0577999987
     11, -0.00499999989, 0.0538499989
     12, -0.00499999989, 0.0498999991
     13, -0.00499999989, 0.0459499992
     14, -0.00499999989, 0.0419999994
     15, -0.00499999989, 0.0380499996
     16, -0.00499999989, 0.0340999998
     17, -0.00499999989,      0.03015
     18, -0.00499999989, 0.0262000002
     19, -0.00499999989, 0.0222500004
     20, -0.00499999989, 0.0183000006
** ... 269 like lines cut
*Element, type=CPE8R
 1,  83,  97,  23,   2, 155, 154,  43,  86
 2,  97, 100,  22,  23, 157, 156,  42, 154
 3, 100, 103,  21,  22, 159, 158,  41, 156
 4, 103, 106,  20,  21, 161, 160,  40, 158
 5, 106, 109,  19,  20, 163, 162,  39, 160
 6, 109, 112,  18,  19, 165, 164,  38, 162
 7, 112, 115,  17,  18, 167, 166,  37, 164
 8, 115, 118,  16,  17, 169, 168,  36, 166
 9, 118, 121,  15,  16, 171, 170,  35, 168
10, 121, 124,  14,  15, 173, 172,  34, 170
11, 124, 127,  13,  14, 175, 174,  33, 172
12, 127, 130,  12,  13, 177, 176,  32, 174
13, 130, 133,  11,  12, 179, 178,  31, 176
14, 133, 136,  10,  11, 181, 180,  30, 178
15, 136, 139,   9,  10, 183, 182,  29, 180
16, 139, 142,   8,   9, 185, 184,  28, 182
17, 142, 145,   7,   8, 187, 186,  27, 184
18, 145, 148,   6,   7, 189, 188,  26, 186
19, 148, 151,   5,   6, 191, 190,  25, 188
20, 151,  90,   1,   5, 192,  93,  24, 190
** ... 60 like lines cut
*Nset, nset=NALL, generate
   1,  289,    1
*Nset, nset=BEAMINSIDEMOVING0
  1,  2,  5,  6,  7,  8,  9, 10, 11, 12, 13, 14, 15, 16, 17, 18
 19, 20, 21, 22, 23, 24, 25, 26, 27, 28, 29, 30, 31, 32, 33, 34
 35, 36, 37, 38, 39, 40, 41, 42, 43
*Nset, nset=BEAMINSIDEMOVING1
  2,  3, 83, 84, 85, 86, 87, 88, 89
*Nset, nset=BEAMINSIDEMOVING2
  3,  4, 44, 45, 46, 47, 48, 49, 50, 51, 52, 53, 54, 55, 56, 57
 58, 59, 60, 61, 62, 63, 64, 65, 66, 67, 68, 69, 70, 71, 72, 73
 74, 75, 76, 77, 78, 79, 80, 81, 82
*Nset, nset=BEAMFIXED
  1,  4, 90, 91, 92, 93, 94, 95, 96
*Elset, elset=EALL, generate
  1,  80,   1
*Elset, elset=SOLID, generate
  1,  80,   1
*Elset, elset=_PickedSet9, internal, generate
  1,  80,   1
** Section: BeamSection
*Solid Section, elset=_PickedSet9, material=Material
1.,
*End Part
**  
**
** ASSEMBLY
**
*Assembly, name=Assembly
**  
*Instance, name=PART-1-1, part=PART-1
*End Instance
**  
*Nset, nset=BEAMFIXED, instance=PART-1-1
  1,  4, 90, 91, 92, 93, 94, 95, 96
*Nset, nset=BEAMINSIDEMOVING0, instance=PART-1-1
  1,  2,  5,  6,  7,  8,  9, 10, 11, 12, 13, 14, 15, 16, 17, 18
 19, 20, 21, 22, 23, 24, 25, 26, 27, 28, 29, 30, 31, 32, 33, 34
 35, 36, 37, 38, 39, 40, 41, 42, 43
*Nset, nset=BEAMINSIDEMOVING1, instance=PART-1-1
  2,  3, 83, 84, 85, 86, 87, 88, 89
*Nset, nset=BEAMINSIDEMOVING2, instance=PART-1-1
  3,  4, 44, 45, 46, 47, 48, 49, 50, 51, 52, 53, 54, 55, 56, 57
 58, 59, 60, 61, 62, 63, 64, 65, 66, 67, 68, 69, 70, 71, 72, 73
 74, 75, 76, 77, 78, 79, 80, 81, 82
*Elset, elset=EALL, instance=PART-1-1, generate
  1,  80,   1
*Nset, nset=NALL, instance=PART-1-1, generate
   1,  289,    1
*Elset, elset=SOLID, instance=PART-1-1, generate
  1,  80,   1
*Elset, elset=_MOVINGSURFACE0_S3, internal, instance=PART-1-1, generate
  1,  20,   1
*Surface, type=ELEMENT, name=MOVINGSURFACE0
_MOVINGSURFACE0_S3, S3
*Elset, elset=_MOVINGSURFACE1_S4, internal, instance=PART-1-1, generate
  1,  61,  20
*Surface, type=ELEMENT, name=MOVINGSURFACE1
_MOVINGSURFACE1_S4, S4
*Elset, elset=_MOVINGSURFACE2_S1, internal, instance=PART-1-1, generate
 61,  80,   1
*Surface, type=ELEMENT, name=MOVINGSURFACE2
_MOVINGSURFACE2_S1, S1
*End Assembly
** 
** MATERIALS
** 
*Material, name=Material
*Density
1100.,
*Elastic
 1e+07, 0.49
** ----------------------------------------------------------------
** 
** STEP: Step-1
** 
*Step, name=Step-1, nlgeom=YES, amplitude=RAMP, inc=10000
*Dynamic,application=MODERATE DISSIPATION
1e-05,0.01,1e-11,0.009
** 
** BOUNDARY CONDITIONS
** 
** Name: FixedTopEnd Type: Displacement/Rotation
*Boundary
BEAMFIXED, 1, 1
BEAMFIXED, 2, 2
BEAMFIXED, 6, 6
** 
** LOADS
** 
** Name: DistributedPressure0   Type: Pressure
*Dsload, op=NEW
MOVINGSURFACE0, PNU, 1.
** Name: DistributedPressure1   Type: Pressure
*Dsload, op=NEW
MOVINGSURFACE1, PNU, 1.
** Name: DistributedPressure2   Type: Pressure
*Dsload, op=NEW
MOVINGSURFACE2, PNU, 1.
** Name: DistributedShear0   Type: Surface traction
*Dsload, op=NEW
MOVINGSURFACE0, TRVECNU, 1., 1., 0., 0.
** Name: DistributedShear1   Type: Surface traction
*Dsload, op=NEW
MOVINGSURFACE1, TRVECNU, 1., 1., 0., 0.
** Name: DistributedShear2   Type: Surface traction
*Dsload, op=NEW
MOVINGSURFACE2, TRVECNU, 1., 1., 0., 0.
** Name: Gravity   Type: Gravity
*Dload
, GRAV, 9.81, 0., -1.
** 
** OUTPUT REQUESTS
** 
*Restart, write, overlay, frequency=99999
** 
** FIELD OUTPUT: F-Output-1
** 
*Output, field, frequency=99999
*Node Output
COORD, U
** 
** FIELD OUTPUT: F-Output-2
** 
*Output, field, variable=PRESELECT, frequency=99999
** 
** HISTORY OUTPUT: H-Output-1
** 
*Output, history, variable=PRESELECT, frequency=99999
*End Step
