*Heading
 Tube
** Job name: CSM_Time0 Model name: Model-1
** Generated by: Abaqus/CAE 6.14-1
*Preprint, echo=NO, model=NO, history=NO, contact=NO
**
** PARTS
**
*Part, name=PART-1
*Node
      1, -0.0250000004, 0.00499999989,           0.
      2, -0.0250000004, 0.00353553006, 0.00353553006
      3, -0.0250000004,           0., 0.00499999989
      4, -0.0250000004, -0.00353553006, 0.00353553006
      5, -0.0250000004, -0.00499999989,           0.
      6, -0.0250000004, -0.00353553006, -0.00353553006
      7, -0.0250000004,           0., -0.00499999989
      8, -0.0250000004, 0.00353553006, -0.00353553006
      9, -0.0250000004, 0.00461940002, 0.00191342004
     10, -0.0250000004, 0.00191342004, 0.00461940002
     11, -0.0250000004, -0.00191342004, 0.00461940002
     12, -0.0250000004, -0.00461940002, 0.00191342004
     13, -0.0250000004, -0.00461940002, -0.00191342004
     14, -0.0250000004, -0.00191342004, -0.00461940002
     15, -0.0250000004, 0.00191342004, -0.00461940002
     16, -0.0250000004, 0.00461940002, -0.00191342004
     17, 0.0250000004, 0.00499999989,           0.
     18, 0.0250000004, 0.00353553006, -0.00353553006
     19, 0.0250000004,           0., -0.00499999989
     20, 0.0250000004, -0.00353553006, -0.00353553006
** ... 284 like lines cut
*Element, type=S8R
 1,  17,  43,  56,  24,  55, 133, 134,  32
 2,  43,  42,  63,  56,  54, 135, 136, 133
 3,  42,  41,  70,  63,  53, 137, 138, 135
 4,  41,  40,  77,  70,  52, 139, 140, 137
 5,  40,  39,  84,  77,  51, 141, 142, 139
 6,  39,  38,  91,  84,  50, 143, 144, 141
 7,  38,  37,  98,  91,  49, 145, 146, 143
 8,  37,  36, 105,  98,  48, 147, 148, 145
 9,  36,  35, 112, 105,  47, 149, 150, 147
10,  35,  34, 119, 112,  46, 151, 152, 149
11,  34,  33, 126, 119,  45, 153, 154, 151
12,  33,   1,   2, 126,  44,   9, 155, 153
13,  24,  56,  57,  23, 134, 156, 157,  31
14,  56,  63,  64,  57, 136, 158, 159, 156
15,  63,  70,  71,  64, 138, 160, 161, 158
16,  70,  77,  78,  71, 140, 162, 163, 160
17,  77,  84,  85,  78, 142, 164, 165, 162
18,  84,  91,  92,  85, 144, 166, 167, 164
19,  91,  98,  99,  92, 146, 168, 169, 166
20,  98, 105, 106,  99, 148, 170, 171, 168
** ... 76 like lines cut
*Nset, nset=NALL, generate
   1,  304,    1
*Nset, nset=LEFTFIXED, generate
  1,  16,   1
*Nset, nset=RIGHTFIXED, generate
 17,  32,   1
*Nset, nset=TOP
  1, 17, 33, 34, 35, 36, 37, 38, 39, 40, 41, 42, 43, 44, 45, 46
 47, 48, 49, 50, 51, 52, 53, 54, 55
*Elset, elset=EALL, generate
  1,  96,   1
*Elset, elset=SOLID, generate
  1,  96,   1
*Elset, elset=_PickedSet8, internal, generate
  1,  96,   1
** Section: ShellSection
*Shell Section, elset=_PickedSet8, material=Material, offset=0.5
0.001, 5
*End Part
**  
**
** ASSEMBLY
**
*Assembly, name=Assembly
**  
*Instance, name=PART-1-1, part=PART-1
*End Instance
**  
*Elset, elset=EALL, instance=PART-1-1, generate
  1,  96,   1
*Nset, nset=LEFTFIXED, instance=PART-1-1, generate
  1,  16,   1
*Nset, nset=NALL, instance=PART-1-1, generate
   1,  304,    1
*Nset, nset=RIGHTFIXED, instance=PART-1-1, generate
 17,  32,   1
*Elset, elset=SOLID, instance=PART-1-1, generate
  1,  96,   1
*Nset, nset=TOP, instance=PART-1-1
  1, 17, 33, 34, 35, 36, 37, 38, 39, 40, 41, 42, 43, 44, 45, 46
 47, 48, 49, 50, 51, 52, 53, 54, 55
*Nset, nset=WALLOUTSIDE, instance=PART-1-1, generate
   1,  304,    1
*Elset, elset=_MOVINGSURFACE0_SNEG, internal, instance=PART-1-1, generate
  1,  96,   1
*Surface, type=ELEMENT, name=MOVINGSURFACE0
_MOVINGSURFACE0_SNEG, SNEG
*End Assembly
** 
** MATERIALS
** 
*Material, name=Material
*Density
1200.,
*Elastic
300000., 0.3
** 
** BOUNDARY CONDITIONS
** 
** Name: BC-1 Type: Displacement/Rotation
*Boundary
LEFTFIXED, 1, 1
LEFTFIXED, 2, 2
LEFTFIXED, 3, 3
** Name: BC-2 Type: Displacement/Rotation
*Boundary
RIGHTFIXED, 1, 1
RIGHTFIXED, 2, 2
RIGHTFIXED, 3, 3
** ----------------------------------------------------------------
** 
** STEP: Step-1
** 
*Step, name=Step-1, nlgeom=YES, inc=1
*Dynamic,application=QUASI-STATIC,direct,nohaf,initial=NO
0.0001,0.0001,
** 
** LOADS
** 
** Name: Load-1   Type: Pressure
*Dsload, op=NEW
MOVINGSURFACE0, PNU, 1.
** Name: Load-2   Type: Surface traction
*Dsload, op=NEW
MOVINGSURFACE0, TRVECNU, 1., 1., 0., 0.
** 
** OUTPUT REQUESTS
** 
*Restart, write, overlay, frequency=99999
** 
** FIELD OUTPUT: F-Output-1
** 
*Output, field, frequency=99999
*Node Output, nset=WALLOUTSIDE
COORD, U
** 
** FIELD OUTPUT: F-Output-2
** 
*Output, field, variable=PRESELECT, frequency=99999
** 
** HISTORY OUTPUT: H-Output-1
** 
*Output, history, variable=PRESELECT, frequency=99999
*End Step
